version 2
run Exponential-575-20161215-08:59:50-8762
attr X 10
attr configname Exponential
attr datetime 20161215-08:59:50
attr experiment Exponential
attr inifile omnetpp.ini
attr iterationvars "$k=6, $t=0.5, $switchTime=2, $X=10"
attr iterationvars2 "$k=6, $t=0.5, $switchTime=2, $X=10, $repetition=5"
attr k 6
attr measurement "$k=6, $t=0.5, $switchTime=2, $X=10"
attr network AerocomSystem
attr processid 8762
attr repetition 5
attr replication #5
attr resultdir results
attr runnumber 575
attr seedset 5
attr switchTime 2
attr t 0.5
param **.N 50
param **.numberOfServers 5
param **.targetCapacity "uniform(100bps, 2000bps, 0)"
param AerocomSystem.airCraft[*].router.X "${X=10, 30, 50}"
param AerocomSystem.airCraft[*].router.switchTime "${switchTime=0..10 step 2}s"
param AerocomSystem.airCraft[*].server[*].t "exponential(${t=0.5, 6, 50}s, 2)"
param AerocomSystem.airCraft[*].source.k "exponential(${k=1, 6, 12}s, 1)"
param AerocomSystem.airCraft[*].source.packetSize 1024b

scalar . 	X 	10
scalar . 	k 	6
scalar . 	switchTime 	2
scalar . 	t 	0.5
scalar AerocomSystem.airCraft[0].fifo 	queueLength:max 	2
attr title  "Statistic about queue's length, max"
scalar AerocomSystem.airCraft[0].fifo 	queueLength:mean 	0.61627906976744
attr title  "Statistic about queue's length, mean"
scalar AerocomSystem.airCraft[0].router 	numSwitch:sum 	51
attr title  "Number of switch operation, sum"
scalar AerocomSystem.airCraft[0].router 	queuingTime:mean 	0.47453454115447
attr title  "Queuing time of packets, mean"
scalar AerocomSystem.airCraft[1].fifo 	queueLength:max 	5
attr title  "Statistic about queue's length, max"
scalar AerocomSystem.airCraft[1].fifo 	queueLength:mean 	1.2272727272727
attr title  "Statistic about queue's length, mean"
scalar AerocomSystem.airCraft[1].router 	numSwitch:sum 	57
attr title  "Number of switch operation, sum"
scalar AerocomSystem.airCraft[1].router 	queuingTime:mean 	0.87299545918464
attr title  "Queuing time of packets, mean"
scalar AerocomSystem.airCraft[2].fifo 	queueLength:max 	3
attr title  "Statistic about queue's length, max"
scalar AerocomSystem.airCraft[2].fifo 	queueLength:mean 	0.99236641221374
attr title  "Statistic about queue's length, mean"
scalar AerocomSystem.airCraft[2].router 	numSwitch:sum 	71
attr title  "Number of switch operation, sum"
scalar AerocomSystem.airCraft[2].router 	queuingTime:mean 	0.81188289384241
attr title  "Queuing time of packets, mean"
scalar AerocomSystem.airCraft[3].fifo 	queueLength:max 	4
attr title  "Statistic about queue's length, max"
scalar AerocomSystem.airCraft[3].fifo 	queueLength:mean 	0.87735849056604
attr title  "Statistic about queue's length, mean"
scalar AerocomSystem.airCraft[3].router 	numSwitch:sum 	55
attr title  "Number of switch operation, sum"
scalar AerocomSystem.airCraft[3].router 	queuingTime:mean 	0.69742891299674
attr title  "Queuing time of packets, mean"
scalar AerocomSystem.airCraft[4].fifo 	queueLength:max 	4
attr title  "Statistic about queue's length, max"
scalar AerocomSystem.airCraft[4].fifo 	queueLength:mean 	0.8921568627451
attr title  "Statistic about queue's length, mean"
scalar AerocomSystem.airCraft[4].router 	numSwitch:sum 	49
attr title  "Number of switch operation, sum"
scalar AerocomSystem.airCraft[4].router 	queuingTime:mean 	0.70158364010387
attr title  "Queuing time of packets, mean"
scalar AerocomSystem.airCraft[5].fifo 	queueLength:max 	3
attr title  "Statistic about queue's length, max"
scalar AerocomSystem.airCraft[5].fifo 	queueLength:mean 	0.8494623655914
attr title  "Statistic about queue's length, mean"
scalar AerocomSystem.airCraft[5].router 	numSwitch:sum 	61
attr title  "Number of switch operation, sum"
scalar AerocomSystem.airCraft[5].router 	queuingTime:mean 	0.65853044681422
attr title  "Queuing time of packets, mean"
scalar AerocomSystem.airCraft[6].fifo 	queueLength:max 	3
attr title  "Statistic about queue's length, max"
scalar AerocomSystem.airCraft[6].fifo 	queueLength:mean 	0.85416666666667
attr title  "Statistic about queue's length, mean"
scalar AerocomSystem.airCraft[6].router 	numSwitch:sum 	58
attr title  "Number of switch operation, sum"
scalar AerocomSystem.airCraft[6].router 	queuingTime:mean 	0.54467037655544
attr title  "Queuing time of packets, mean"
scalar AerocomSystem.airCraft[7].fifo 	queueLength:max 	4
attr title  "Statistic about queue's length, max"
scalar AerocomSystem.airCraft[7].fifo 	queueLength:mean 	0.86324786324786
attr title  "Statistic about queue's length, mean"
scalar AerocomSystem.airCraft[7].router 	numSwitch:sum 	60
attr title  "Number of switch operation, sum"
scalar AerocomSystem.airCraft[7].router 	queuingTime:mean 	0.75491367151265
attr title  "Queuing time of packets, mean"
scalar AerocomSystem.airCraft[8].fifo 	queueLength:max 	3
attr title  "Statistic about queue's length, max"
scalar AerocomSystem.airCraft[8].fifo 	queueLength:mean 	0.73529411764706
attr title  "Statistic about queue's length, mean"
scalar AerocomSystem.airCraft[8].router 	numSwitch:sum 	57
attr title  "Number of switch operation, sum"
scalar AerocomSystem.airCraft[8].router 	queuingTime:mean 	0.5942313081749
attr title  "Queuing time of packets, mean"
scalar AerocomSystem.airCraft[9].fifo 	queueLength:max 	3
attr title  "Statistic about queue's length, max"
scalar AerocomSystem.airCraft[9].fifo 	queueLength:mean 	0.79411764705882
attr title  "Statistic about queue's length, mean"
scalar AerocomSystem.airCraft[9].router 	numSwitch:sum 	54
attr title  "Number of switch operation, sum"
scalar AerocomSystem.airCraft[9].router 	queuingTime:mean 	0.52383171279637
attr title  "Queuing time of packets, mean"
scalar AerocomSystem.airCraft[10].fifo 	queueLength:max 	4
attr title  "Statistic about queue's length, max"
scalar AerocomSystem.airCraft[10].fifo 	queueLength:mean 	0.96808510638298
attr title  "Statistic about queue's length, mean"
scalar AerocomSystem.airCraft[10].router 	numSwitch:sum 	53
attr title  "Number of switch operation, sum"
scalar AerocomSystem.airCraft[10].router 	queuingTime:mean 	0.59219702786244
attr title  "Queuing time of packets, mean"
scalar AerocomSystem.airCraft[11].fifo 	queueLength:max 	3
attr title  "Statistic about queue's length, max"
scalar AerocomSystem.airCraft[11].fifo 	queueLength:mean 	0.83333333333333
attr title  "Statistic about queue's length, mean"
scalar AerocomSystem.airCraft[11].router 	numSwitch:sum 	60
attr title  "Number of switch operation, sum"
scalar AerocomSystem.airCraft[11].router 	queuingTime:mean 	0.68791568206557
attr title  "Queuing time of packets, mean"
scalar AerocomSystem.airCraft[12].fifo 	queueLength:max 	3
attr title  "Statistic about queue's length, max"
scalar AerocomSystem.airCraft[12].fifo 	queueLength:mean 	0.83333333333333
attr title  "Statistic about queue's length, mean"
scalar AerocomSystem.airCraft[12].router 	numSwitch:sum 	52
attr title  "Number of switch operation, sum"
scalar AerocomSystem.airCraft[12].router 	queuingTime:mean 	0.60614504113964
attr title  "Queuing time of packets, mean"
scalar AerocomSystem.airCraft[13].fifo 	queueLength:max 	2
attr title  "Statistic about queue's length, max"
scalar AerocomSystem.airCraft[13].fifo 	queueLength:mean 	0.66666666666667
attr title  "Statistic about queue's length, mean"
scalar AerocomSystem.airCraft[13].router 	numSwitch:sum 	53
attr title  "Number of switch operation, sum"
scalar AerocomSystem.airCraft[13].router 	queuingTime:mean 	0.41107931110779
attr title  "Queuing time of packets, mean"
scalar AerocomSystem.airCraft[14].fifo 	queueLength:max 	6
attr title  "Statistic about queue's length, max"
scalar AerocomSystem.airCraft[14].fifo 	queueLength:mean 	1.1164383561644
attr title  "Statistic about queue's length, mean"
scalar AerocomSystem.airCraft[14].router 	numSwitch:sum 	63
attr title  "Number of switch operation, sum"
scalar AerocomSystem.airCraft[14].router 	queuingTime:mean 	0.94841007776807
attr title  "Queuing time of packets, mean"
scalar AerocomSystem.airCraft[15].fifo 	queueLength:max 	4
attr title  "Statistic about queue's length, max"
scalar AerocomSystem.airCraft[15].fifo 	queueLength:mean 	0.93396226415094
attr title  "Statistic about queue's length, mean"
scalar AerocomSystem.airCraft[15].router 	numSwitch:sum 	63
attr title  "Number of switch operation, sum"
scalar AerocomSystem.airCraft[15].router 	queuingTime:mean 	0.7215804074764
attr title  "Queuing time of packets, mean"
scalar AerocomSystem.airCraft[16].fifo 	queueLength:max 	4
attr title  "Statistic about queue's length, max"
scalar AerocomSystem.airCraft[16].fifo 	queueLength:mean 	1.1578947368421
attr title  "Statistic about queue's length, mean"
scalar AerocomSystem.airCraft[16].router 	numSwitch:sum 	65
attr title  "Number of switch operation, sum"
scalar AerocomSystem.airCraft[16].router 	queuingTime:mean 	1.15984913911
attr title  "Queuing time of packets, mean"
scalar AerocomSystem.airCraft[17].fifo 	queueLength:max 	2
attr title  "Statistic about queue's length, max"
scalar AerocomSystem.airCraft[17].fifo 	queueLength:mean 	0.70786516853933
attr title  "Statistic about queue's length, mean"
scalar AerocomSystem.airCraft[17].router 	numSwitch:sum 	58
attr title  "Number of switch operation, sum"
scalar AerocomSystem.airCraft[17].router 	queuingTime:mean 	0.38150116590655
attr title  "Queuing time of packets, mean"
scalar AerocomSystem.airCraft[18].fifo 	queueLength:max 	4
attr title  "Statistic about queue's length, max"
scalar AerocomSystem.airCraft[18].fifo 	queueLength:mean 	0.91666666666667
attr title  "Statistic about queue's length, mean"
scalar AerocomSystem.airCraft[18].router 	numSwitch:sum 	62
attr title  "Number of switch operation, sum"
scalar AerocomSystem.airCraft[18].router 	queuingTime:mean 	0.64965405326951
attr title  "Queuing time of packets, mean"
scalar AerocomSystem.airCraft[19].fifo 	queueLength:max 	2
attr title  "Statistic about queue's length, max"
scalar AerocomSystem.airCraft[19].fifo 	queueLength:mean 	0.73913043478261
attr title  "Statistic about queue's length, mean"
scalar AerocomSystem.airCraft[19].router 	numSwitch:sum 	56
attr title  "Number of switch operation, sum"
scalar AerocomSystem.airCraft[19].router 	queuingTime:mean 	0.42604379841349
attr title  "Queuing time of packets, mean"
scalar AerocomSystem.airCraft[20].fifo 	queueLength:max 	3
attr title  "Statistic about queue's length, max"
scalar AerocomSystem.airCraft[20].fifo 	queueLength:mean 	0.86363636363636
attr title  "Statistic about queue's length, mean"
scalar AerocomSystem.airCraft[20].router 	numSwitch:sum 	42
attr title  "Number of switch operation, sum"
scalar AerocomSystem.airCraft[20].router 	queuingTime:mean 	0.43274680742507
attr title  "Queuing time of packets, mean"
scalar AerocomSystem.airCraft[21].fifo 	queueLength:max 	3
attr title  "Statistic about queue's length, max"
scalar AerocomSystem.airCraft[21].fifo 	queueLength:mean 	0.8469387755102
attr title  "Statistic about queue's length, mean"
scalar AerocomSystem.airCraft[21].router 	numSwitch:sum 	60
attr title  "Number of switch operation, sum"
scalar AerocomSystem.airCraft[21].router 	queuingTime:mean 	0.55045425731235
attr title  "Queuing time of packets, mean"
scalar AerocomSystem.airCraft[22].fifo 	queueLength:max 	3
attr title  "Statistic about queue's length, max"
scalar AerocomSystem.airCraft[22].fifo 	queueLength:mean 	0.78125
attr title  "Statistic about queue's length, mean"
scalar AerocomSystem.airCraft[22].router 	numSwitch:sum 	61
attr title  "Number of switch operation, sum"
scalar AerocomSystem.airCraft[22].router 	queuingTime:mean 	0.72803969191784
attr title  "Queuing time of packets, mean"
scalar AerocomSystem.airCraft[23].fifo 	queueLength:max 	3
attr title  "Statistic about queue's length, max"
scalar AerocomSystem.airCraft[23].fifo 	queueLength:mean 	0.79032258064516
attr title  "Statistic about queue's length, mean"
scalar AerocomSystem.airCraft[23].router 	numSwitch:sum 	51
attr title  "Number of switch operation, sum"
scalar AerocomSystem.airCraft[23].router 	queuingTime:mean 	0.39379651817301
attr title  "Queuing time of packets, mean"
scalar AerocomSystem.airCraft[24].fifo 	queueLength:max 	2
attr title  "Statistic about queue's length, max"
scalar AerocomSystem.airCraft[24].fifo 	queueLength:mean 	0.67647058823529
attr title  "Statistic about queue's length, mean"
scalar AerocomSystem.airCraft[24].router 	numSwitch:sum 	56
attr title  "Number of switch operation, sum"
scalar AerocomSystem.airCraft[24].router 	queuingTime:mean 	0.51466456433763
attr title  "Queuing time of packets, mean"
scalar AerocomSystem.airCraft[25].fifo 	queueLength:max 	3
attr title  "Statistic about queue's length, max"
scalar AerocomSystem.airCraft[25].fifo 	queueLength:mean 	0.82142857142857
attr title  "Statistic about queue's length, mean"
scalar AerocomSystem.airCraft[25].router 	numSwitch:sum 	62
attr title  "Number of switch operation, sum"
scalar AerocomSystem.airCraft[25].router 	queuingTime:mean 	0.57717250221315
attr title  "Queuing time of packets, mean"
scalar AerocomSystem.airCraft[26].fifo 	queueLength:max 	3
attr title  "Statistic about queue's length, max"
scalar AerocomSystem.airCraft[26].fifo 	queueLength:mean 	0.83928571428571
attr title  "Statistic about queue's length, mean"
scalar AerocomSystem.airCraft[26].router 	numSwitch:sum 	51
attr title  "Number of switch operation, sum"
scalar AerocomSystem.airCraft[26].router 	queuingTime:mean 	0.69305328665456
attr title  "Queuing time of packets, mean"
scalar AerocomSystem.airCraft[27].fifo 	queueLength:max 	5
attr title  "Statistic about queue's length, max"
scalar AerocomSystem.airCraft[27].fifo 	queueLength:mean 	0.98387096774194
attr title  "Statistic about queue's length, mean"
scalar AerocomSystem.airCraft[27].router 	numSwitch:sum 	63
attr title  "Number of switch operation, sum"
scalar AerocomSystem.airCraft[27].router 	queuingTime:mean 	1.0490471494115
attr title  "Queuing time of packets, mean"
scalar AerocomSystem.airCraft[28].fifo 	queueLength:max 	3
attr title  "Statistic about queue's length, max"
scalar AerocomSystem.airCraft[28].fifo 	queueLength:mean 	0.79411764705882
attr title  "Statistic about queue's length, mean"
scalar AerocomSystem.airCraft[28].router 	numSwitch:sum 	61
attr title  "Number of switch operation, sum"
scalar AerocomSystem.airCraft[28].router 	queuingTime:mean 	0.5681063033911
attr title  "Queuing time of packets, mean"
scalar AerocomSystem.airCraft[29].fifo 	queueLength:max 	2
attr title  "Statistic about queue's length, max"
scalar AerocomSystem.airCraft[29].fifo 	queueLength:mean 	0.72222222222222
attr title  "Statistic about queue's length, mean"
scalar AerocomSystem.airCraft[29].router 	numSwitch:sum 	57
attr title  "Number of switch operation, sum"
scalar AerocomSystem.airCraft[29].router 	queuingTime:mean 	0.4942912984067
attr title  "Queuing time of packets, mean"
scalar AerocomSystem.airCraft[30].fifo 	queueLength:max 	2
attr title  "Statistic about queue's length, max"
scalar AerocomSystem.airCraft[30].fifo 	queueLength:mean 	0.63513513513514
attr title  "Statistic about queue's length, mean"
scalar AerocomSystem.airCraft[30].router 	numSwitch:sum 	50
attr title  "Number of switch operation, sum"
scalar AerocomSystem.airCraft[30].router 	queuingTime:mean 	0.37664683332471
attr title  "Queuing time of packets, mean"
scalar AerocomSystem.airCraft[31].fifo 	queueLength:max 	2
attr title  "Statistic about queue's length, max"
scalar AerocomSystem.airCraft[31].fifo 	queueLength:mean 	0.60810810810811
attr title  "Statistic about queue's length, mean"
scalar AerocomSystem.airCraft[31].router 	numSwitch:sum 	50
attr title  "Number of switch operation, sum"
scalar AerocomSystem.airCraft[31].router 	queuingTime:mean 	0.47111114585778
attr title  "Queuing time of packets, mean"
scalar AerocomSystem.airCraft[32].fifo 	queueLength:max 	3
attr title  "Statistic about queue's length, max"
scalar AerocomSystem.airCraft[32].fifo 	queueLength:mean 	0.84920634920635
attr title  "Statistic about queue's length, mean"
scalar AerocomSystem.airCraft[32].router 	numSwitch:sum 	61
attr title  "Number of switch operation, sum"
scalar AerocomSystem.airCraft[32].router 	queuingTime:mean 	0.65763551385195
attr title  "Queuing time of packets, mean"
scalar AerocomSystem.airCraft[33].fifo 	queueLength:max 	2
attr title  "Statistic about queue's length, max"
scalar AerocomSystem.airCraft[33].fifo 	queueLength:mean 	0.76086956521739
attr title  "Statistic about queue's length, mean"
scalar AerocomSystem.airCraft[33].router 	numSwitch:sum 	50
attr title  "Number of switch operation, sum"
scalar AerocomSystem.airCraft[33].router 	queuingTime:mean 	0.41095873021675
attr title  "Queuing time of packets, mean"
scalar AerocomSystem.airCraft[34].fifo 	queueLength:max 	4
attr title  "Statistic about queue's length, max"
scalar AerocomSystem.airCraft[34].fifo 	queueLength:mean 	0.79230769230769
attr title  "Statistic about queue's length, mean"
scalar AerocomSystem.airCraft[34].router 	numSwitch:sum 	67
attr title  "Number of switch operation, sum"
scalar AerocomSystem.airCraft[34].router 	queuingTime:mean 	0.5809499093617
attr title  "Queuing time of packets, mean"
scalar AerocomSystem.airCraft[35].fifo 	queueLength:max 	2
attr title  "Statistic about queue's length, max"
scalar AerocomSystem.airCraft[35].fifo 	queueLength:mean 	0.60416666666667
attr title  "Statistic about queue's length, mean"
scalar AerocomSystem.airCraft[35].router 	numSwitch:sum 	64
attr title  "Number of switch operation, sum"
scalar AerocomSystem.airCraft[35].router 	queuingTime:mean 	0.4550165525546
attr title  "Queuing time of packets, mean"
scalar AerocomSystem.airCraft[36].fifo 	queueLength:max 	4
attr title  "Statistic about queue's length, max"
scalar AerocomSystem.airCraft[36].fifo 	queueLength:mean 	1.0416666666667
attr title  "Statistic about queue's length, mean"
scalar AerocomSystem.airCraft[36].router 	numSwitch:sum 	50
attr title  "Number of switch operation, sum"
scalar AerocomSystem.airCraft[36].router 	queuingTime:mean 	0.83648101915481
attr title  "Queuing time of packets, mean"
scalar AerocomSystem.airCraft[37].fifo 	queueLength:max 	3
attr title  "Statistic about queue's length, max"
scalar AerocomSystem.airCraft[37].fifo 	queueLength:mean 	0.81147540983607
attr title  "Statistic about queue's length, mean"
scalar AerocomSystem.airCraft[37].router 	numSwitch:sum 	54
attr title  "Number of switch operation, sum"
scalar AerocomSystem.airCraft[37].router 	queuingTime:mean 	0.73674687604074
attr title  "Queuing time of packets, mean"
scalar AerocomSystem.airCraft[38].fifo 	queueLength:max 	3
attr title  "Statistic about queue's length, max"
scalar AerocomSystem.airCraft[38].fifo 	queueLength:mean 	0.71311475409836
attr title  "Statistic about queue's length, mean"
scalar AerocomSystem.airCraft[38].router 	numSwitch:sum 	66
attr title  "Number of switch operation, sum"
scalar AerocomSystem.airCraft[38].router 	queuingTime:mean 	0.60000608775499
attr title  "Queuing time of packets, mean"
scalar AerocomSystem.airCraft[39].fifo 	queueLength:max 	3
attr title  "Statistic about queue's length, max"
scalar AerocomSystem.airCraft[39].fifo 	queueLength:mean 	0.78260869565217
attr title  "Statistic about queue's length, mean"
scalar AerocomSystem.airCraft[39].router 	numSwitch:sum 	57
attr title  "Number of switch operation, sum"
scalar AerocomSystem.airCraft[39].router 	queuingTime:mean 	0.55823304778645
attr title  "Queuing time of packets, mean"
scalar AerocomSystem.airCraft[40].fifo 	queueLength:max 	5
attr title  "Statistic about queue's length, max"
scalar AerocomSystem.airCraft[40].fifo 	queueLength:mean 	1.2169811320755
attr title  "Statistic about queue's length, mean"
scalar AerocomSystem.airCraft[40].router 	numSwitch:sum 	59
attr title  "Number of switch operation, sum"
scalar AerocomSystem.airCraft[40].router 	queuingTime:mean 	0.96157468873415
attr title  "Queuing time of packets, mean"
scalar AerocomSystem.airCraft[41].fifo 	queueLength:max 	4
attr title  "Statistic about queue's length, max"
scalar AerocomSystem.airCraft[41].fifo 	queueLength:mean 	0.83962264150943
attr title  "Statistic about queue's length, mean"
scalar AerocomSystem.airCraft[41].router 	numSwitch:sum 	53
attr title  "Number of switch operation, sum"
scalar AerocomSystem.airCraft[41].router 	queuingTime:mean 	0.60064917360792
attr title  "Queuing time of packets, mean"
scalar AerocomSystem.airCraft[42].fifo 	queueLength:max 	2
attr title  "Statistic about queue's length, max"
scalar AerocomSystem.airCraft[42].fifo 	queueLength:mean 	0.76086956521739
attr title  "Statistic about queue's length, mean"
scalar AerocomSystem.airCraft[42].router 	numSwitch:sum 	56
attr title  "Number of switch operation, sum"
scalar AerocomSystem.airCraft[42].router 	queuingTime:mean 	0.47497699173235
attr title  "Queuing time of packets, mean"
scalar AerocomSystem.airCraft[43].fifo 	queueLength:max 	2
attr title  "Statistic about queue's length, max"
scalar AerocomSystem.airCraft[43].fifo 	queueLength:mean 	0.58888888888889
attr title  "Statistic about queue's length, mean"
scalar AerocomSystem.airCraft[43].router 	numSwitch:sum 	53
attr title  "Number of switch operation, sum"
scalar AerocomSystem.airCraft[43].router 	queuingTime:mean 	0.42637467500248
attr title  "Queuing time of packets, mean"
scalar AerocomSystem.airCraft[44].fifo 	queueLength:max 	3
attr title  "Statistic about queue's length, max"
scalar AerocomSystem.airCraft[44].fifo 	queueLength:mean 	0.75
attr title  "Statistic about queue's length, mean"
scalar AerocomSystem.airCraft[44].router 	numSwitch:sum 	50
attr title  "Number of switch operation, sum"
scalar AerocomSystem.airCraft[44].router 	queuingTime:mean 	0.53932260036407
attr title  "Queuing time of packets, mean"
scalar AerocomSystem.airCraft[45].fifo 	queueLength:max 	5
attr title  "Statistic about queue's length, max"
scalar AerocomSystem.airCraft[45].fifo 	queueLength:mean 	0.91818181818182
attr title  "Statistic about queue's length, mean"
scalar AerocomSystem.airCraft[45].router 	numSwitch:sum 	52
attr title  "Number of switch operation, sum"
scalar AerocomSystem.airCraft[45].router 	queuingTime:mean 	0.57481172306917
attr title  "Queuing time of packets, mean"
scalar AerocomSystem.airCraft[46].fifo 	queueLength:max 	4
attr title  "Statistic about queue's length, max"
scalar AerocomSystem.airCraft[46].fifo 	queueLength:mean 	1.0454545454545
attr title  "Statistic about queue's length, mean"
scalar AerocomSystem.airCraft[46].router 	numSwitch:sum 	64
attr title  "Number of switch operation, sum"
scalar AerocomSystem.airCraft[46].router 	queuingTime:mean 	1.0793380718038
attr title  "Queuing time of packets, mean"
scalar AerocomSystem.airCraft[47].fifo 	queueLength:max 	3
attr title  "Statistic about queue's length, max"
scalar AerocomSystem.airCraft[47].fifo 	queueLength:mean 	0.83333333333333
attr title  "Statistic about queue's length, mean"
scalar AerocomSystem.airCraft[47].router 	numSwitch:sum 	55
attr title  "Number of switch operation, sum"
scalar AerocomSystem.airCraft[47].router 	queuingTime:mean 	0.49970084564348
attr title  "Queuing time of packets, mean"
scalar AerocomSystem.airCraft[48].fifo 	queueLength:max 	3
attr title  "Statistic about queue's length, max"
scalar AerocomSystem.airCraft[48].fifo 	queueLength:mean 	0.82758620689655
attr title  "Statistic about queue's length, mean"
scalar AerocomSystem.airCraft[48].router 	numSwitch:sum 	57
attr title  "Number of switch operation, sum"
scalar AerocomSystem.airCraft[48].router 	queuingTime:mean 	0.60825655672733
attr title  "Queuing time of packets, mean"
scalar AerocomSystem.airCraft[49].fifo 	queueLength:max 	5
attr title  "Statistic about queue's length, max"
scalar AerocomSystem.airCraft[49].fifo 	queueLength:mean 	0.90816326530612
attr title  "Statistic about queue's length, mean"
scalar AerocomSystem.airCraft[49].router 	numSwitch:sum 	54
attr title  "Number of switch operation, sum"
scalar AerocomSystem.airCraft[49].router 	queuingTime:mean 	0.59889791961701
attr title  "Queuing time of packets, mean"
scalar AerocomSystem.controlTower 	responseTime:mean 	2.5166960499886
attr title  "Response time of arrived packets, mean"
attr unit  s
