version 2
run Exponential-781-20161215-09:18:03-11675
attr X 10
attr configname Exponential
attr datetime 20161215-09:18:03
attr experiment Exponential
attr inifile omnetpp.ini
attr iterationvars "$k=6, $t=6, $switchTime=4, $X=10"
attr iterationvars2 "$k=6, $t=6, $switchTime=4, $X=10, $repetition=1"
attr k 6
attr measurement "$k=6, $t=6, $switchTime=4, $X=10"
attr network AerocomSystem
attr processid 11675
attr repetition 1
attr replication #1
attr resultdir results
attr runnumber 781
attr seedset 1
attr switchTime 4
attr t 6
param **.N 50
param **.numberOfServers 5
param **.targetCapacity "uniform(100bps, 2000bps, 0)"
param AerocomSystem.airCraft[*].router.X "${X=10, 30, 50}"
param AerocomSystem.airCraft[*].router.switchTime "${switchTime=0..10 step 2}s"
param AerocomSystem.airCraft[*].server[*].t "exponential(${t=0.5, 6, 50}s, 2)"
param AerocomSystem.airCraft[*].source.k "exponential(${k=1, 6, 12}s, 1)"
param AerocomSystem.airCraft[*].source.packetSize 1024b

scalar . 	X 	10
scalar . 	k 	6
scalar . 	switchTime 	4
scalar . 	t 	6
scalar AerocomSystem.airCraft[0].fifo 	queueLength:max 	4
attr title  "Statistic about queue's length, max"
scalar AerocomSystem.airCraft[0].fifo 	queueLength:mean 	0.79411764705882
attr title  "Statistic about queue's length, mean"
scalar AerocomSystem.airCraft[0].router 	numSwitch:sum 	39
attr title  "Number of switch operation, sum"
scalar AerocomSystem.airCraft[0].router 	queuingTime:mean 	0.69890582463946
attr title  "Queuing time of packets, mean"
scalar AerocomSystem.airCraft[1].fifo 	queueLength:max 	3
attr title  "Statistic about queue's length, max"
scalar AerocomSystem.airCraft[1].fifo 	queueLength:mean 	0.96808510638298
attr title  "Statistic about queue's length, mean"
scalar AerocomSystem.airCraft[1].router 	numSwitch:sum 	44
attr title  "Number of switch operation, sum"
scalar AerocomSystem.airCraft[1].router 	queuingTime:mean 	0.82918423120688
attr title  "Queuing time of packets, mean"
scalar AerocomSystem.airCraft[2].fifo 	queueLength:max 	3
attr title  "Statistic about queue's length, max"
scalar AerocomSystem.airCraft[2].fifo 	queueLength:mean 	0.88095238095238
attr title  "Statistic about queue's length, mean"
scalar AerocomSystem.airCraft[2].router 	numSwitch:sum 	49
attr title  "Number of switch operation, sum"
scalar AerocomSystem.airCraft[2].router 	queuingTime:mean 	0.88390033631242
attr title  "Queuing time of packets, mean"
scalar AerocomSystem.airCraft[3].fifo 	queueLength:max 	3
attr title  "Statistic about queue's length, max"
scalar AerocomSystem.airCraft[3].fifo 	queueLength:mean 	0.71428571428571
attr title  "Statistic about queue's length, mean"
scalar AerocomSystem.airCraft[3].router 	numSwitch:sum 	36
attr title  "Number of switch operation, sum"
scalar AerocomSystem.airCraft[3].router 	queuingTime:mean 	0.71586002236291
attr title  "Queuing time of packets, mean"
scalar AerocomSystem.airCraft[4].fifo 	queueLength:max 	4
attr title  "Statistic about queue's length, max"
scalar AerocomSystem.airCraft[4].fifo 	queueLength:mean 	0.96341463414634
attr title  "Statistic about queue's length, mean"
scalar AerocomSystem.airCraft[4].router 	numSwitch:sum 	36
attr title  "Number of switch operation, sum"
scalar AerocomSystem.airCraft[4].router 	queuingTime:mean 	0.68127131363769
attr title  "Queuing time of packets, mean"
scalar AerocomSystem.airCraft[5].fifo 	queueLength:max 	3
attr title  "Statistic about queue's length, max"
scalar AerocomSystem.airCraft[5].fifo 	queueLength:mean 	0.85185185185185
attr title  "Statistic about queue's length, mean"
scalar AerocomSystem.airCraft[5].router 	numSwitch:sum 	43
attr title  "Number of switch operation, sum"
scalar AerocomSystem.airCraft[5].router 	queuingTime:mean 	0.68463490229007
attr title  "Queuing time of packets, mean"
scalar AerocomSystem.airCraft[6].fifo 	queueLength:max 	3
attr title  "Statistic about queue's length, max"
scalar AerocomSystem.airCraft[6].fifo 	queueLength:mean 	0.73404255319149
attr title  "Statistic about queue's length, mean"
scalar AerocomSystem.airCraft[6].router 	numSwitch:sum 	42
attr title  "Number of switch operation, sum"
scalar AerocomSystem.airCraft[6].router 	queuingTime:mean 	0.57989024045269
attr title  "Queuing time of packets, mean"
scalar AerocomSystem.airCraft[7].fifo 	queueLength:max 	4
attr title  "Statistic about queue's length, max"
scalar AerocomSystem.airCraft[7].fifo 	queueLength:mean 	0.93939393939394
attr title  "Statistic about queue's length, mean"
scalar AerocomSystem.airCraft[7].router 	numSwitch:sum 	54
attr title  "Number of switch operation, sum"
scalar AerocomSystem.airCraft[7].router 	queuingTime:mean 	1.0007303799151
attr title  "Queuing time of packets, mean"
scalar AerocomSystem.airCraft[8].fifo 	queueLength:max 	3
attr title  "Statistic about queue's length, max"
scalar AerocomSystem.airCraft[8].fifo 	queueLength:mean 	0.96938775510204
attr title  "Statistic about queue's length, mean"
scalar AerocomSystem.airCraft[8].router 	numSwitch:sum 	37
attr title  "Number of switch operation, sum"
scalar AerocomSystem.airCraft[8].router 	queuingTime:mean 	0.78969677637802
attr title  "Queuing time of packets, mean"
scalar AerocomSystem.airCraft[9].fifo 	queueLength:max 	6
attr title  "Statistic about queue's length, max"
scalar AerocomSystem.airCraft[9].fifo 	queueLength:mean 	1.1842105263158
attr title  "Statistic about queue's length, mean"
scalar AerocomSystem.airCraft[9].router 	numSwitch:sum 	44
attr title  "Number of switch operation, sum"
scalar AerocomSystem.airCraft[9].router 	queuingTime:mean 	1.0739493168493
attr title  "Queuing time of packets, mean"
scalar AerocomSystem.airCraft[10].fifo 	queueLength:max 	5
attr title  "Statistic about queue's length, max"
scalar AerocomSystem.airCraft[10].fifo 	queueLength:mean 	0.96808510638298
attr title  "Statistic about queue's length, mean"
scalar AerocomSystem.airCraft[10].router 	numSwitch:sum 	40
attr title  "Number of switch operation, sum"
scalar AerocomSystem.airCraft[10].router 	queuingTime:mean 	0.76816632437519
attr title  "Queuing time of packets, mean"
scalar AerocomSystem.airCraft[11].fifo 	queueLength:max 	3
attr title  "Statistic about queue's length, max"
scalar AerocomSystem.airCraft[11].fifo 	queueLength:mean 	0.87254901960784
attr title  "Statistic about queue's length, mean"
scalar AerocomSystem.airCraft[11].router 	numSwitch:sum 	42
attr title  "Number of switch operation, sum"
scalar AerocomSystem.airCraft[11].router 	queuingTime:mean 	0.84815891141134
attr title  "Queuing time of packets, mean"
scalar AerocomSystem.airCraft[12].fifo 	queueLength:max 	5
attr title  "Statistic about queue's length, max"
scalar AerocomSystem.airCraft[12].fifo 	queueLength:mean 	1.0238095238095
attr title  "Statistic about queue's length, mean"
scalar AerocomSystem.airCraft[12].router 	numSwitch:sum 	42
attr title  "Number of switch operation, sum"
scalar AerocomSystem.airCraft[12].router 	queuingTime:mean 	0.8799853630221
attr title  "Queuing time of packets, mean"
scalar AerocomSystem.airCraft[13].fifo 	queueLength:max 	4
attr title  "Statistic about queue's length, max"
scalar AerocomSystem.airCraft[13].fifo 	queueLength:mean 	1.1612903225806
attr title  "Statistic about queue's length, mean"
scalar AerocomSystem.airCraft[13].router 	numSwitch:sum 	44
attr title  "Number of switch operation, sum"
scalar AerocomSystem.airCraft[13].router 	queuingTime:mean 	1.1135856395329
attr title  "Queuing time of packets, mean"
scalar AerocomSystem.airCraft[14].fifo 	queueLength:max 	3
attr title  "Statistic about queue's length, max"
scalar AerocomSystem.airCraft[14].fifo 	queueLength:mean 	0.85416666666667
attr title  "Statistic about queue's length, mean"
scalar AerocomSystem.airCraft[14].router 	numSwitch:sum 	35
attr title  "Number of switch operation, sum"
scalar AerocomSystem.airCraft[14].router 	queuingTime:mean 	0.70177430661318
attr title  "Queuing time of packets, mean"
scalar AerocomSystem.airCraft[15].fifo 	queueLength:max 	4
attr title  "Statistic about queue's length, max"
scalar AerocomSystem.airCraft[15].fifo 	queueLength:mean 	0.95762711864407
attr title  "Statistic about queue's length, mean"
scalar AerocomSystem.airCraft[15].router 	numSwitch:sum 	42
attr title  "Number of switch operation, sum"
scalar AerocomSystem.airCraft[15].router 	queuingTime:mean 	0.89415755109464
attr title  "Queuing time of packets, mean"
scalar AerocomSystem.airCraft[16].fifo 	queueLength:max 	4
attr title  "Statistic about queue's length, max"
scalar AerocomSystem.airCraft[16].fifo 	queueLength:mean 	1.0606060606061
attr title  "Statistic about queue's length, mean"
scalar AerocomSystem.airCraft[16].router 	numSwitch:sum 	43
attr title  "Number of switch operation, sum"
scalar AerocomSystem.airCraft[16].router 	queuingTime:mean 	1.0445381568492
attr title  "Queuing time of packets, mean"
scalar AerocomSystem.airCraft[17].fifo 	queueLength:max 	3
attr title  "Statistic about queue's length, max"
scalar AerocomSystem.airCraft[17].fifo 	queueLength:mean 	0.83898305084746
attr title  "Statistic about queue's length, mean"
scalar AerocomSystem.airCraft[17].router 	numSwitch:sum 	46
attr title  "Number of switch operation, sum"
scalar AerocomSystem.airCraft[17].router 	queuingTime:mean 	0.63844885447709
attr title  "Queuing time of packets, mean"
scalar AerocomSystem.airCraft[18].fifo 	queueLength:max 	3
attr title  "Statistic about queue's length, max"
scalar AerocomSystem.airCraft[18].fifo 	queueLength:mean 	0.9
attr title  "Statistic about queue's length, mean"
scalar AerocomSystem.airCraft[18].router 	numSwitch:sum 	40
attr title  "Number of switch operation, sum"
scalar AerocomSystem.airCraft[18].router 	queuingTime:mean 	0.70754789299672
attr title  "Queuing time of packets, mean"
scalar AerocomSystem.airCraft[19].fifo 	queueLength:max 	4
attr title  "Statistic about queue's length, max"
scalar AerocomSystem.airCraft[19].fifo 	queueLength:mean 	1.1
attr title  "Statistic about queue's length, mean"
scalar AerocomSystem.airCraft[19].router 	numSwitch:sum 	47
attr title  "Number of switch operation, sum"
scalar AerocomSystem.airCraft[19].router 	queuingTime:mean 	1.0866666498191
attr title  "Queuing time of packets, mean"
scalar AerocomSystem.airCraft[20].fifo 	queueLength:max 	3
attr title  "Statistic about queue's length, max"
scalar AerocomSystem.airCraft[20].fifo 	queueLength:mean 	0.65909090909091
attr title  "Statistic about queue's length, mean"
scalar AerocomSystem.airCraft[20].router 	numSwitch:sum 	36
attr title  "Number of switch operation, sum"
scalar AerocomSystem.airCraft[20].router 	queuingTime:mean 	0.48382452709109
attr title  "Queuing time of packets, mean"
scalar AerocomSystem.airCraft[21].fifo 	queueLength:max 	3
attr title  "Statistic about queue's length, max"
scalar AerocomSystem.airCraft[21].fifo 	queueLength:mean 	0.9
attr title  "Statistic about queue's length, mean"
scalar AerocomSystem.airCraft[21].router 	numSwitch:sum 	43
attr title  "Number of switch operation, sum"
scalar AerocomSystem.airCraft[21].router 	queuingTime:mean 	0.83980995262548
attr title  "Queuing time of packets, mean"
scalar AerocomSystem.airCraft[22].fifo 	queueLength:max 	3
attr title  "Statistic about queue's length, max"
scalar AerocomSystem.airCraft[22].fifo 	queueLength:mean 	0.94615384615385
attr title  "Statistic about queue's length, mean"
scalar AerocomSystem.airCraft[22].router 	numSwitch:sum 	49
attr title  "Number of switch operation, sum"
scalar AerocomSystem.airCraft[22].router 	queuingTime:mean 	0.81773986071212
attr title  "Queuing time of packets, mean"
scalar AerocomSystem.airCraft[23].fifo 	queueLength:max 	3
attr title  "Statistic about queue's length, max"
scalar AerocomSystem.airCraft[23].fifo 	queueLength:mean 	0.90740740740741
attr title  "Statistic about queue's length, mean"
scalar AerocomSystem.airCraft[23].router 	numSwitch:sum 	42
attr title  "Number of switch operation, sum"
scalar AerocomSystem.airCraft[23].router 	queuingTime:mean 	0.89898552073825
attr title  "Queuing time of packets, mean"
scalar AerocomSystem.airCraft[24].fifo 	queueLength:max 	3
attr title  "Statistic about queue's length, max"
scalar AerocomSystem.airCraft[24].fifo 	queueLength:mean 	0.80612244897959
attr title  "Statistic about queue's length, mean"
scalar AerocomSystem.airCraft[24].router 	numSwitch:sum 	45
attr title  "Number of switch operation, sum"
scalar AerocomSystem.airCraft[24].router 	queuingTime:mean 	0.73824056957265
attr title  "Queuing time of packets, mean"
scalar AerocomSystem.airCraft[25].fifo 	queueLength:max 	5
attr title  "Statistic about queue's length, max"
scalar AerocomSystem.airCraft[25].fifo 	queueLength:mean 	1.0740740740741
attr title  "Statistic about queue's length, mean"
scalar AerocomSystem.airCraft[25].router 	numSwitch:sum 	44
attr title  "Number of switch operation, sum"
scalar AerocomSystem.airCraft[25].router 	queuingTime:mean 	1.137367670081
attr title  "Queuing time of packets, mean"
scalar AerocomSystem.airCraft[26].fifo 	queueLength:max 	3
attr title  "Statistic about queue's length, max"
scalar AerocomSystem.airCraft[26].fifo 	queueLength:mean 	0.86315789473684
attr title  "Statistic about queue's length, mean"
scalar AerocomSystem.airCraft[26].router 	numSwitch:sum 	36
attr title  "Number of switch operation, sum"
scalar AerocomSystem.airCraft[26].router 	queuingTime:mean 	0.75294501451776
attr title  "Queuing time of packets, mean"
scalar AerocomSystem.airCraft[27].fifo 	queueLength:max 	2
attr title  "Statistic about queue's length, max"
scalar AerocomSystem.airCraft[27].fifo 	queueLength:mean 	0.64634146341463
attr title  "Statistic about queue's length, mean"
scalar AerocomSystem.airCraft[27].router 	numSwitch:sum 	36
attr title  "Number of switch operation, sum"
scalar AerocomSystem.airCraft[27].router 	queuingTime:mean 	0.59350532898854
attr title  "Queuing time of packets, mean"
scalar AerocomSystem.airCraft[28].fifo 	queueLength:max 	6
attr title  "Statistic about queue's length, max"
scalar AerocomSystem.airCraft[28].fifo 	queueLength:mean 	1.219298245614
attr title  "Statistic about queue's length, mean"
scalar AerocomSystem.airCraft[28].router 	numSwitch:sum 	43
attr title  "Number of switch operation, sum"
scalar AerocomSystem.airCraft[28].router 	queuingTime:mean 	0.8525897921837
attr title  "Queuing time of packets, mean"
scalar AerocomSystem.airCraft[29].fifo 	queueLength:max 	5
attr title  "Statistic about queue's length, max"
scalar AerocomSystem.airCraft[29].fifo 	queueLength:mean 	1.3387096774194
attr title  "Statistic about queue's length, mean"
scalar AerocomSystem.airCraft[29].router 	numSwitch:sum 	45
attr title  "Number of switch operation, sum"
scalar AerocomSystem.airCraft[29].router 	queuingTime:mean 	1.4183328102084
attr title  "Queuing time of packets, mean"
scalar AerocomSystem.airCraft[30].fifo 	queueLength:max 	4
attr title  "Statistic about queue's length, max"
scalar AerocomSystem.airCraft[30].fifo 	queueLength:mean 	0.94444444444444
attr title  "Statistic about queue's length, mean"
scalar AerocomSystem.airCraft[30].router 	numSwitch:sum 	37
attr title  "Number of switch operation, sum"
scalar AerocomSystem.airCraft[30].router 	queuingTime:mean 	0.71513347045348
attr title  "Queuing time of packets, mean"
scalar AerocomSystem.airCraft[31].fifo 	queueLength:max 	5
attr title  "Statistic about queue's length, max"
scalar AerocomSystem.airCraft[31].fifo 	queueLength:mean 	1.1666666666667
attr title  "Statistic about queue's length, mean"
scalar AerocomSystem.airCraft[31].router 	numSwitch:sum 	53
attr title  "Number of switch operation, sum"
scalar AerocomSystem.airCraft[31].router 	queuingTime:mean 	1.044316552533
attr title  "Queuing time of packets, mean"
scalar AerocomSystem.airCraft[32].fifo 	queueLength:max 	3
attr title  "Statistic about queue's length, max"
scalar AerocomSystem.airCraft[32].fifo 	queueLength:mean 	0.92857142857143
attr title  "Statistic about queue's length, mean"
scalar AerocomSystem.airCraft[32].router 	numSwitch:sum 	39
attr title  "Number of switch operation, sum"
scalar AerocomSystem.airCraft[32].router 	queuingTime:mean 	0.79328244605357
attr title  "Queuing time of packets, mean"
scalar AerocomSystem.airCraft[33].fifo 	queueLength:max 	4
attr title  "Statistic about queue's length, max"
scalar AerocomSystem.airCraft[33].fifo 	queueLength:mean 	0.77659574468085
attr title  "Statistic about queue's length, mean"
scalar AerocomSystem.airCraft[33].router 	numSwitch:sum 	40
attr title  "Number of switch operation, sum"
scalar AerocomSystem.airCraft[33].router 	queuingTime:mean 	0.52721132151133
attr title  "Queuing time of packets, mean"
scalar AerocomSystem.airCraft[34].fifo 	queueLength:max 	3
attr title  "Statistic about queue's length, max"
scalar AerocomSystem.airCraft[34].fifo 	queueLength:mean 	0.92079207920792
attr title  "Statistic about queue's length, mean"
scalar AerocomSystem.airCraft[34].router 	numSwitch:sum 	37
attr title  "Number of switch operation, sum"
scalar AerocomSystem.airCraft[34].router 	queuingTime:mean 	0.71318883781742
attr title  "Queuing time of packets, mean"
scalar AerocomSystem.airCraft[35].fifo 	queueLength:max 	5
attr title  "Statistic about queue's length, max"
scalar AerocomSystem.airCraft[35].fifo 	queueLength:mean 	1.1612903225806
attr title  "Statistic about queue's length, mean"
scalar AerocomSystem.airCraft[35].router 	numSwitch:sum 	45
attr title  "Number of switch operation, sum"
scalar AerocomSystem.airCraft[35].router 	queuingTime:mean 	1.0280359911049
attr title  "Queuing time of packets, mean"
scalar AerocomSystem.airCraft[36].fifo 	queueLength:max 	3
attr title  "Statistic about queue's length, max"
scalar AerocomSystem.airCraft[36].fifo 	queueLength:mean 	0.96428571428571
attr title  "Statistic about queue's length, mean"
scalar AerocomSystem.airCraft[36].router 	numSwitch:sum 	36
attr title  "Number of switch operation, sum"
scalar AerocomSystem.airCraft[36].router 	queuingTime:mean 	0.95486472194341
attr title  "Queuing time of packets, mean"
scalar AerocomSystem.airCraft[37].fifo 	queueLength:max 	3
attr title  "Statistic about queue's length, max"
scalar AerocomSystem.airCraft[37].fifo 	queueLength:mean 	0.8265306122449
attr title  "Statistic about queue's length, mean"
scalar AerocomSystem.airCraft[37].router 	numSwitch:sum 	44
attr title  "Number of switch operation, sum"
scalar AerocomSystem.airCraft[37].router 	queuingTime:mean 	0.78448578050113
attr title  "Queuing time of packets, mean"
scalar AerocomSystem.airCraft[38].fifo 	queueLength:max 	3
attr title  "Statistic about queue's length, max"
scalar AerocomSystem.airCraft[38].fifo 	queueLength:mean 	0.74489795918367
attr title  "Statistic about queue's length, mean"
scalar AerocomSystem.airCraft[38].router 	numSwitch:sum 	43
attr title  "Number of switch operation, sum"
scalar AerocomSystem.airCraft[38].router 	queuingTime:mean 	0.7119774783922
attr title  "Queuing time of packets, mean"
scalar AerocomSystem.airCraft[39].fifo 	queueLength:max 	4
attr title  "Statistic about queue's length, max"
scalar AerocomSystem.airCraft[39].fifo 	queueLength:mean 	1.2
attr title  "Statistic about queue's length, mean"
scalar AerocomSystem.airCraft[39].router 	numSwitch:sum 	47
attr title  "Number of switch operation, sum"
scalar AerocomSystem.airCraft[39].router 	queuingTime:mean 	1.1043817836439
attr title  "Queuing time of packets, mean"
scalar AerocomSystem.airCraft[40].fifo 	queueLength:max 	5
attr title  "Statistic about queue's length, max"
scalar AerocomSystem.airCraft[40].fifo 	queueLength:mean 	1.0454545454545
attr title  "Statistic about queue's length, mean"
scalar AerocomSystem.airCraft[40].router 	numSwitch:sum 	41
attr title  "Number of switch operation, sum"
scalar AerocomSystem.airCraft[40].router 	queuingTime:mean 	0.89147210226439
attr title  "Queuing time of packets, mean"
scalar AerocomSystem.airCraft[41].fifo 	queueLength:max 	4
attr title  "Statistic about queue's length, max"
scalar AerocomSystem.airCraft[41].fifo 	queueLength:mean 	0.9
attr title  "Statistic about queue's length, mean"
scalar AerocomSystem.airCraft[41].router 	numSwitch:sum 	50
attr title  "Number of switch operation, sum"
scalar AerocomSystem.airCraft[41].router 	queuingTime:mean 	1.0786523118052
attr title  "Queuing time of packets, mean"
scalar AerocomSystem.airCraft[42].fifo 	queueLength:max 	5
attr title  "Statistic about queue's length, max"
scalar AerocomSystem.airCraft[42].fifo 	queueLength:mean 	1.1888888888889
attr title  "Statistic about queue's length, mean"
scalar AerocomSystem.airCraft[42].router 	numSwitch:sum 	50
attr title  "Number of switch operation, sum"
scalar AerocomSystem.airCraft[42].router 	queuingTime:mean 	1.0010214095903
attr title  "Queuing time of packets, mean"
scalar AerocomSystem.airCraft[43].fifo 	queueLength:max 	3
attr title  "Statistic about queue's length, max"
scalar AerocomSystem.airCraft[43].fifo 	queueLength:mean 	0.78125
attr title  "Statistic about queue's length, mean"
scalar AerocomSystem.airCraft[43].router 	numSwitch:sum 	44
attr title  "Number of switch operation, sum"
scalar AerocomSystem.airCraft[43].router 	queuingTime:mean 	0.77975638906545
attr title  "Queuing time of packets, mean"
scalar AerocomSystem.airCraft[44].fifo 	queueLength:max 	3
attr title  "Statistic about queue's length, max"
scalar AerocomSystem.airCraft[44].fifo 	queueLength:mean 	0.71621621621622
attr title  "Statistic about queue's length, mean"
scalar AerocomSystem.airCraft[44].router 	numSwitch:sum 	42
attr title  "Number of switch operation, sum"
scalar AerocomSystem.airCraft[44].router 	queuingTime:mean 	0.52983043955085
attr title  "Queuing time of packets, mean"
scalar AerocomSystem.airCraft[45].fifo 	queueLength:max 	3
attr title  "Statistic about queue's length, max"
scalar AerocomSystem.airCraft[45].fifo 	queueLength:mean 	0.96153846153846
attr title  "Statistic about queue's length, mean"
scalar AerocomSystem.airCraft[45].router 	numSwitch:sum 	43
attr title  "Number of switch operation, sum"
scalar AerocomSystem.airCraft[45].router 	queuingTime:mean 	0.64466924602026
attr title  "Queuing time of packets, mean"
scalar AerocomSystem.airCraft[46].fifo 	queueLength:max 	3
attr title  "Statistic about queue's length, max"
scalar AerocomSystem.airCraft[46].fifo 	queueLength:mean 	0.76530612244898
attr title  "Statistic about queue's length, mean"
scalar AerocomSystem.airCraft[46].router 	numSwitch:sum 	40
attr title  "Number of switch operation, sum"
scalar AerocomSystem.airCraft[46].router 	queuingTime:mean 	0.74021776484281
attr title  "Queuing time of packets, mean"
scalar AerocomSystem.airCraft[47].fifo 	queueLength:max 	4
attr title  "Statistic about queue's length, max"
scalar AerocomSystem.airCraft[47].fifo 	queueLength:mean 	1.1417910447761
attr title  "Statistic about queue's length, mean"
scalar AerocomSystem.airCraft[47].router 	numSwitch:sum 	46
attr title  "Number of switch operation, sum"
scalar AerocomSystem.airCraft[47].router 	queuingTime:mean 	1.1644537160533
attr title  "Queuing time of packets, mean"
scalar AerocomSystem.airCraft[48].fifo 	queueLength:max 	4
attr title  "Statistic about queue's length, max"
scalar AerocomSystem.airCraft[48].fifo 	queueLength:mean 	1.0079365079365
attr title  "Statistic about queue's length, mean"
scalar AerocomSystem.airCraft[48].router 	numSwitch:sum 	47
attr title  "Number of switch operation, sum"
scalar AerocomSystem.airCraft[48].router 	queuingTime:mean 	1.1384547228927
attr title  "Queuing time of packets, mean"
scalar AerocomSystem.airCraft[49].fifo 	queueLength:max 	4
attr title  "Statistic about queue's length, max"
scalar AerocomSystem.airCraft[49].fifo 	queueLength:mean 	0.94186046511628
attr title  "Statistic about queue's length, mean"
scalar AerocomSystem.airCraft[49].router 	numSwitch:sum 	42
attr title  "Number of switch operation, sum"
scalar AerocomSystem.airCraft[49].router 	queuingTime:mean 	0.69693116667771
attr title  "Queuing time of packets, mean"
scalar AerocomSystem.controlTower 	responseTime:mean 	2.7904043919164
attr title  "Response time of arrived packets, mean"
attr unit  s
