version 2
run Exponential-0-20161227-17:39:04-2681
attr X 0
attr configname Exponential
attr datetime 20161227-17:39:04
attr experiment Exponential
attr inifile omnetpp.ini
attr iterationvars "$switchTime=5, $X=0, $k=2.5, $t=0.2, $routingAlgorithm=\"MAX_CAPACITY\", $queuePolicy=\"FIFO_POLICY\""
attr iterationvars2 "$switchTime=5, $X=0, $k=2.5, $t=0.2, $routingAlgorithm=\"MAX_CAPACITY\", $queuePolicy=\"FIFO_POLICY\", $repetition=0"
attr k 2.5
attr measurement "$switchTime=5, $X=0, $k=2.5, $t=0.2, $routingAlgorithm=\"MAX_CAPACITY\", $queuePolicy=\"FIFO_POLICY\""
attr network AerocomSystem
attr processid 2681
attr queuePolicy "\"FIFO_POLICY\""
attr repetition 0
attr replication #0
attr resultdir results
attr routingAlgorithm "\"MAX_CAPACITY\""
attr runnumber 0
attr seedset 0
attr switchTime 5
attr t 0.2
param **.N 50
param **.numberOfServers 5
param **.targetCapacity "uniform(100bps, 2000bps, 0)"
param AerocomSystem.airCraft[*].router.X "${X=0..100 step 20}"
param AerocomSystem.airCraft[*].router.queuePolicy "${queuePolicy=\"FIFO_POLICY\"}"
param AerocomSystem.airCraft[*].router.switchTime ${switchTime=5,10,15,20}s
param AerocomSystem.airCraft[*].routingAlgorithm "${routingAlgorithm=\"MAX_CAPACITY\"}"
param AerocomSystem.airCraft[*].server[*].serviceTimeForMM1Approximation "exponential(4s, 4)"
param AerocomSystem.airCraft[*].server[*].t "exponential(${t=0.2,0.5,10,20,50}s, 2)"
param AerocomSystem.airCraft[*].source.k "exponential(${k=2.5}s, 1)"
param AerocomSystem.airCraft[*].source.packetPriority "uniform(1, 4, 3)"
param AerocomSystem.airCraft[*].source.packetSize 2048b

scalar . 	X 	0
scalar . 	k 	2.5
scalar . 	switchTime 	5
scalar . 	t 	0.2
scalar AerocomSystem.airCraft[0].router 	queueLength:max 	nan
attr title  "Statistic about queue's length, max"
scalar AerocomSystem.airCraft[0].router 	numSwitch:sum 	0
attr title  "Number of switch operation, sum"
scalar AerocomSystem.airCraft[1].router 	queueLength:max 	nan
attr title  "Statistic about queue's length, max"
scalar AerocomSystem.airCraft[1].router 	numSwitch:sum 	0
attr title  "Number of switch operation, sum"
scalar AerocomSystem.airCraft[2].router 	queueLength:max 	nan
attr title  "Statistic about queue's length, max"
scalar AerocomSystem.airCraft[2].router 	numSwitch:sum 	0
attr title  "Number of switch operation, sum"
scalar AerocomSystem.airCraft[3].router 	queueLength:max 	nan
attr title  "Statistic about queue's length, max"
scalar AerocomSystem.airCraft[3].router 	numSwitch:sum 	0
attr title  "Number of switch operation, sum"
scalar AerocomSystem.airCraft[4].router 	queueLength:max 	nan
attr title  "Statistic about queue's length, max"
scalar AerocomSystem.airCraft[4].router 	numSwitch:sum 	0
attr title  "Number of switch operation, sum"
scalar AerocomSystem.airCraft[5].router 	queueLength:max 	nan
attr title  "Statistic about queue's length, max"
scalar AerocomSystem.airCraft[5].router 	numSwitch:sum 	0
attr title  "Number of switch operation, sum"
scalar AerocomSystem.airCraft[6].router 	queueLength:max 	nan
attr title  "Statistic about queue's length, max"
scalar AerocomSystem.airCraft[6].router 	numSwitch:sum 	0
attr title  "Number of switch operation, sum"
scalar AerocomSystem.airCraft[7].router 	queueLength:max 	nan
attr title  "Statistic about queue's length, max"
scalar AerocomSystem.airCraft[7].router 	numSwitch:sum 	0
attr title  "Number of switch operation, sum"
scalar AerocomSystem.airCraft[8].router 	queueLength:max 	nan
attr title  "Statistic about queue's length, max"
scalar AerocomSystem.airCraft[8].router 	numSwitch:sum 	0
attr title  "Number of switch operation, sum"
scalar AerocomSystem.airCraft[9].router 	queueLength:max 	nan
attr title  "Statistic about queue's length, max"
scalar AerocomSystem.airCraft[9].router 	numSwitch:sum 	0
attr title  "Number of switch operation, sum"
scalar AerocomSystem.airCraft[10].router 	queueLength:max 	nan
attr title  "Statistic about queue's length, max"
scalar AerocomSystem.airCraft[10].router 	numSwitch:sum 	0
attr title  "Number of switch operation, sum"
scalar AerocomSystem.airCraft[11].router 	queueLength:max 	nan
attr title  "Statistic about queue's length, max"
scalar AerocomSystem.airCraft[11].router 	numSwitch:sum 	0
attr title  "Number of switch operation, sum"
scalar AerocomSystem.airCraft[12].router 	queueLength:max 	nan
attr title  "Statistic about queue's length, max"
scalar AerocomSystem.airCraft[12].router 	numSwitch:sum 	0
attr title  "Number of switch operation, sum"
scalar AerocomSystem.airCraft[13].router 	queueLength:max 	nan
attr title  "Statistic about queue's length, max"
scalar AerocomSystem.airCraft[13].router 	numSwitch:sum 	0
attr title  "Number of switch operation, sum"
scalar AerocomSystem.airCraft[14].router 	queueLength:max 	nan
attr title  "Statistic about queue's length, max"
scalar AerocomSystem.airCraft[14].router 	numSwitch:sum 	0
attr title  "Number of switch operation, sum"
scalar AerocomSystem.airCraft[15].router 	queueLength:max 	nan
attr title  "Statistic about queue's length, max"
scalar AerocomSystem.airCraft[15].router 	numSwitch:sum 	0
attr title  "Number of switch operation, sum"
scalar AerocomSystem.airCraft[16].router 	queueLength:max 	nan
attr title  "Statistic about queue's length, max"
scalar AerocomSystem.airCraft[16].router 	numSwitch:sum 	0
attr title  "Number of switch operation, sum"
scalar AerocomSystem.airCraft[17].router 	queueLength:max 	nan
attr title  "Statistic about queue's length, max"
scalar AerocomSystem.airCraft[17].router 	numSwitch:sum 	0
attr title  "Number of switch operation, sum"
scalar AerocomSystem.airCraft[18].router 	queueLength:max 	nan
attr title  "Statistic about queue's length, max"
scalar AerocomSystem.airCraft[18].router 	numSwitch:sum 	0
attr title  "Number of switch operation, sum"
scalar AerocomSystem.airCraft[19].router 	queueLength:max 	nan
attr title  "Statistic about queue's length, max"
scalar AerocomSystem.airCraft[19].router 	numSwitch:sum 	0
attr title  "Number of switch operation, sum"
scalar AerocomSystem.airCraft[20].router 	queueLength:max 	nan
attr title  "Statistic about queue's length, max"
scalar AerocomSystem.airCraft[20].router 	numSwitch:sum 	0
attr title  "Number of switch operation, sum"
scalar AerocomSystem.airCraft[21].router 	queueLength:max 	nan
attr title  "Statistic about queue's length, max"
scalar AerocomSystem.airCraft[21].router 	numSwitch:sum 	0
attr title  "Number of switch operation, sum"
scalar AerocomSystem.airCraft[22].router 	queueLength:max 	nan
attr title  "Statistic about queue's length, max"
scalar AerocomSystem.airCraft[22].router 	numSwitch:sum 	0
attr title  "Number of switch operation, sum"
scalar AerocomSystem.airCraft[23].router 	queueLength:max 	nan
attr title  "Statistic about queue's length, max"
scalar AerocomSystem.airCraft[23].router 	numSwitch:sum 	0
attr title  "Number of switch operation, sum"
scalar AerocomSystem.airCraft[24].router 	queueLength:max 	nan
attr title  "Statistic about queue's length, max"
scalar AerocomSystem.airCraft[24].router 	numSwitch:sum 	0
attr title  "Number of switch operation, sum"
scalar AerocomSystem.airCraft[25].router 	queueLength:max 	nan
attr title  "Statistic about queue's length, max"
scalar AerocomSystem.airCraft[25].router 	numSwitch:sum 	0
attr title  "Number of switch operation, sum"
scalar AerocomSystem.airCraft[26].router 	queueLength:max 	nan
attr title  "Statistic about queue's length, max"
scalar AerocomSystem.airCraft[26].router 	numSwitch:sum 	0
attr title  "Number of switch operation, sum"
scalar AerocomSystem.airCraft[27].router 	queueLength:max 	nan
attr title  "Statistic about queue's length, max"
scalar AerocomSystem.airCraft[27].router 	numSwitch:sum 	0
attr title  "Number of switch operation, sum"
scalar AerocomSystem.airCraft[28].router 	queueLength:max 	nan
attr title  "Statistic about queue's length, max"
scalar AerocomSystem.airCraft[28].router 	numSwitch:sum 	0
attr title  "Number of switch operation, sum"
scalar AerocomSystem.airCraft[29].router 	queueLength:max 	nan
attr title  "Statistic about queue's length, max"
scalar AerocomSystem.airCraft[29].router 	numSwitch:sum 	0
attr title  "Number of switch operation, sum"
scalar AerocomSystem.airCraft[30].router 	queueLength:max 	nan
attr title  "Statistic about queue's length, max"
scalar AerocomSystem.airCraft[30].router 	numSwitch:sum 	0
attr title  "Number of switch operation, sum"
scalar AerocomSystem.airCraft[31].router 	queueLength:max 	nan
attr title  "Statistic about queue's length, max"
scalar AerocomSystem.airCraft[31].router 	numSwitch:sum 	0
attr title  "Number of switch operation, sum"
scalar AerocomSystem.airCraft[32].router 	queueLength:max 	nan
attr title  "Statistic about queue's length, max"
scalar AerocomSystem.airCraft[32].router 	numSwitch:sum 	0
attr title  "Number of switch operation, sum"
scalar AerocomSystem.airCraft[33].router 	queueLength:max 	nan
attr title  "Statistic about queue's length, max"
scalar AerocomSystem.airCraft[33].router 	numSwitch:sum 	0
attr title  "Number of switch operation, sum"
scalar AerocomSystem.airCraft[34].router 	queueLength:max 	nan
attr title  "Statistic about queue's length, max"
scalar AerocomSystem.airCraft[34].router 	numSwitch:sum 	0
attr title  "Number of switch operation, sum"
scalar AerocomSystem.airCraft[35].router 	queueLength:max 	nan
attr title  "Statistic about queue's length, max"
scalar AerocomSystem.airCraft[35].router 	numSwitch:sum 	0
attr title  "Number of switch operation, sum"
scalar AerocomSystem.airCraft[36].router 	queueLength:max 	nan
attr title  "Statistic about queue's length, max"
scalar AerocomSystem.airCraft[36].router 	numSwitch:sum 	0
attr title  "Number of switch operation, sum"
scalar AerocomSystem.airCraft[37].router 	queueLength:max 	nan
attr title  "Statistic about queue's length, max"
scalar AerocomSystem.airCraft[37].router 	numSwitch:sum 	0
attr title  "Number of switch operation, sum"
scalar AerocomSystem.airCraft[38].router 	queueLength:max 	nan
attr title  "Statistic about queue's length, max"
scalar AerocomSystem.airCraft[38].router 	numSwitch:sum 	0
attr title  "Number of switch operation, sum"
scalar AerocomSystem.airCraft[39].router 	queueLength:max 	nan
attr title  "Statistic about queue's length, max"
scalar AerocomSystem.airCraft[39].router 	numSwitch:sum 	0
attr title  "Number of switch operation, sum"
scalar AerocomSystem.airCraft[40].router 	queueLength:max 	nan
attr title  "Statistic about queue's length, max"
scalar AerocomSystem.airCraft[40].router 	numSwitch:sum 	0
attr title  "Number of switch operation, sum"
scalar AerocomSystem.airCraft[41].router 	queueLength:max 	nan
attr title  "Statistic about queue's length, max"
scalar AerocomSystem.airCraft[41].router 	numSwitch:sum 	0
attr title  "Number of switch operation, sum"
scalar AerocomSystem.airCraft[42].router 	queueLength:max 	nan
attr title  "Statistic about queue's length, max"
scalar AerocomSystem.airCraft[42].router 	numSwitch:sum 	0
attr title  "Number of switch operation, sum"
scalar AerocomSystem.airCraft[43].router 	queueLength:max 	nan
attr title  "Statistic about queue's length, max"
scalar AerocomSystem.airCraft[43].router 	numSwitch:sum 	0
attr title  "Number of switch operation, sum"
scalar AerocomSystem.airCraft[44].router 	queueLength:max 	nan
attr title  "Statistic about queue's length, max"
scalar AerocomSystem.airCraft[44].router 	numSwitch:sum 	0
attr title  "Number of switch operation, sum"
scalar AerocomSystem.airCraft[45].router 	queueLength:max 	nan
attr title  "Statistic about queue's length, max"
scalar AerocomSystem.airCraft[45].router 	numSwitch:sum 	0
attr title  "Number of switch operation, sum"
scalar AerocomSystem.airCraft[46].router 	queueLength:max 	nan
attr title  "Statistic about queue's length, max"
scalar AerocomSystem.airCraft[46].router 	numSwitch:sum 	0
attr title  "Number of switch operation, sum"
scalar AerocomSystem.airCraft[47].router 	queueLength:max 	nan
attr title  "Statistic about queue's length, max"
scalar AerocomSystem.airCraft[47].router 	numSwitch:sum 	0
attr title  "Number of switch operation, sum"
scalar AerocomSystem.airCraft[48].router 	queueLength:max 	nan
attr title  "Statistic about queue's length, max"
scalar AerocomSystem.airCraft[48].router 	numSwitch:sum 	0
attr title  "Number of switch operation, sum"
scalar AerocomSystem.airCraft[49].router 	queueLength:max 	nan
attr title  "Statistic about queue's length, max"
scalar AerocomSystem.airCraft[49].router 	numSwitch:sum 	0
attr title  "Number of switch operation, sum"
scalar AerocomSystem.controlTower 	packetReceived:sum 	0
attr title  "Number of packets received, sum"
scalar AerocomSystem.controlTower 	responseTime:mean 	nan
attr title  "Response time of arrived packets, mean"
attr unit  s
