version 2
run Exponential-559-20161215-08:58:03-8549
attr X 30
attr configname Exponential
attr datetime 20161215-08:58:03
attr experiment Exponential
attr inifile omnetpp.ini
attr iterationvars "$k=6, $t=0.5, $switchTime=0, $X=30"
attr iterationvars2 "$k=6, $t=0.5, $switchTime=0, $X=30, $repetition=9"
attr k 6
attr measurement "$k=6, $t=0.5, $switchTime=0, $X=30"
attr network AerocomSystem
attr processid 8549
attr repetition 9
attr replication #9
attr resultdir results
attr runnumber 559
attr seedset 9
attr switchTime 0
attr t 0.5
param **.N 50
param **.numberOfServers 5
param **.targetCapacity "uniform(100bps, 2000bps, 0)"
param AerocomSystem.airCraft[*].router.X "${X=10, 30, 50}"
param AerocomSystem.airCraft[*].router.switchTime "${switchTime=0..10 step 2}s"
param AerocomSystem.airCraft[*].server[*].t "exponential(${t=0.5, 6, 50}s, 2)"
param AerocomSystem.airCraft[*].source.k "exponential(${k=1, 6, 12}s, 1)"
param AerocomSystem.airCraft[*].source.packetSize 1024b

scalar . 	X 	30
scalar . 	k 	6
scalar . 	switchTime 	0
scalar . 	t 	0.5
scalar AerocomSystem.airCraft[0].fifo 	queueLength:max 	3
attr title  "Statistic about queue's length, max"
scalar AerocomSystem.airCraft[0].fifo 	queueLength:mean 	0.7258064516129
attr title  "Statistic about queue's length, mean"
scalar AerocomSystem.airCraft[0].router 	numSwitch:sum 	39
attr title  "Number of switch operation, sum"
scalar AerocomSystem.airCraft[0].router 	queuingTime:mean 	0.19781586591343
attr title  "Queuing time of packets, mean"
scalar AerocomSystem.airCraft[1].fifo 	queueLength:max 	3
attr title  "Statistic about queue's length, max"
scalar AerocomSystem.airCraft[1].fifo 	queueLength:mean 	0.71428571428571
attr title  "Statistic about queue's length, mean"
scalar AerocomSystem.airCraft[1].router 	numSwitch:sum 	51
attr title  "Number of switch operation, sum"
scalar AerocomSystem.airCraft[1].router 	queuingTime:mean 	0.17543197348311
attr title  "Queuing time of packets, mean"
scalar AerocomSystem.airCraft[2].fifo 	queueLength:max 	3
attr title  "Statistic about queue's length, max"
scalar AerocomSystem.airCraft[2].fifo 	queueLength:mean 	0.775
attr title  "Statistic about queue's length, mean"
scalar AerocomSystem.airCraft[2].router 	numSwitch:sum 	47
attr title  "Number of switch operation, sum"
scalar AerocomSystem.airCraft[2].router 	queuingTime:mean 	0.44173066160972
attr title  "Queuing time of packets, mean"
scalar AerocomSystem.airCraft[3].fifo 	queueLength:max 	2
attr title  "Statistic about queue's length, max"
scalar AerocomSystem.airCraft[3].fifo 	queueLength:mean 	0.63513513513514
attr title  "Statistic about queue's length, mean"
scalar AerocomSystem.airCraft[3].router 	numSwitch:sum 	33
attr title  "Number of switch operation, sum"
scalar AerocomSystem.airCraft[3].router 	queuingTime:mean 	0.24942613754825
attr title  "Queuing time of packets, mean"
scalar AerocomSystem.airCraft[4].fifo 	queueLength:max 	2
attr title  "Statistic about queue's length, max"
scalar AerocomSystem.airCraft[4].fifo 	queueLength:mean 	0.58
attr title  "Statistic about queue's length, mean"
scalar AerocomSystem.airCraft[4].router 	numSwitch:sum 	51
attr title  "Number of switch operation, sum"
scalar AerocomSystem.airCraft[4].router 	queuingTime:mean 	0.13038237331751
attr title  "Queuing time of packets, mean"
scalar AerocomSystem.airCraft[5].fifo 	queueLength:max 	3
attr title  "Statistic about queue's length, max"
scalar AerocomSystem.airCraft[5].fifo 	queueLength:mean 	0.8125
attr title  "Statistic about queue's length, mean"
scalar AerocomSystem.airCraft[5].router 	numSwitch:sum 	53
attr title  "Number of switch operation, sum"
scalar AerocomSystem.airCraft[5].router 	queuingTime:mean 	0.18532528063313
attr title  "Queuing time of packets, mean"
scalar AerocomSystem.airCraft[6].fifo 	queueLength:max 	2
attr title  "Statistic about queue's length, max"
scalar AerocomSystem.airCraft[6].fifo 	queueLength:mean 	0.64814814814815
attr title  "Statistic about queue's length, mean"
scalar AerocomSystem.airCraft[6].router 	numSwitch:sum 	34
attr title  "Number of switch operation, sum"
scalar AerocomSystem.airCraft[6].router 	queuingTime:mean 	0.14267339882957
attr title  "Queuing time of packets, mean"
scalar AerocomSystem.airCraft[7].fifo 	queueLength:max 	2
attr title  "Statistic about queue's length, max"
scalar AerocomSystem.airCraft[7].fifo 	queueLength:mean 	0.60714285714286
attr title  "Statistic about queue's length, mean"
scalar AerocomSystem.airCraft[7].router 	numSwitch:sum 	45
attr title  "Number of switch operation, sum"
scalar AerocomSystem.airCraft[7].router 	queuingTime:mean 	0.20054057020198
attr title  "Queuing time of packets, mean"
scalar AerocomSystem.airCraft[8].fifo 	queueLength:max 	2
attr title  "Statistic about queue's length, max"
scalar AerocomSystem.airCraft[8].fifo 	queueLength:mean 	0.625
attr title  "Statistic about queue's length, mean"
scalar AerocomSystem.airCraft[8].router 	numSwitch:sum 	50
attr title  "Number of switch operation, sum"
scalar AerocomSystem.airCraft[8].router 	queuingTime:mean 	0.22159238563403
attr title  "Queuing time of packets, mean"
scalar AerocomSystem.airCraft[9].fifo 	queueLength:max 	2
attr title  "Statistic about queue's length, max"
scalar AerocomSystem.airCraft[9].fifo 	queueLength:mean 	0.7962962962963
attr title  "Statistic about queue's length, mean"
scalar AerocomSystem.airCraft[9].router 	numSwitch:sum 	46
attr title  "Number of switch operation, sum"
scalar AerocomSystem.airCraft[9].router 	queuingTime:mean 	0.21090707768465
attr title  "Queuing time of packets, mean"
scalar AerocomSystem.airCraft[10].fifo 	queueLength:max 	2
attr title  "Statistic about queue's length, max"
scalar AerocomSystem.airCraft[10].fifo 	queueLength:mean 	0.61428571428571
attr title  "Statistic about queue's length, mean"
scalar AerocomSystem.airCraft[10].router 	numSwitch:sum 	42
attr title  "Number of switch operation, sum"
scalar AerocomSystem.airCraft[10].router 	queuingTime:mean 	0.15994745950363
attr title  "Queuing time of packets, mean"
scalar AerocomSystem.airCraft[11].fifo 	queueLength:max 	2
attr title  "Statistic about queue's length, max"
scalar AerocomSystem.airCraft[11].fifo 	queueLength:mean 	0.625
attr title  "Statistic about queue's length, mean"
scalar AerocomSystem.airCraft[11].router 	numSwitch:sum 	47
attr title  "Number of switch operation, sum"
scalar AerocomSystem.airCraft[11].router 	queuingTime:mean 	0.17842980487081
attr title  "Queuing time of packets, mean"
scalar AerocomSystem.airCraft[12].fifo 	queueLength:max 	2
attr title  "Statistic about queue's length, max"
scalar AerocomSystem.airCraft[12].fifo 	queueLength:mean 	0.55
attr title  "Statistic about queue's length, mean"
scalar AerocomSystem.airCraft[12].router 	numSwitch:sum 	40
attr title  "Number of switch operation, sum"
scalar AerocomSystem.airCraft[12].router 	queuingTime:mean 	0.12208547644205
attr title  "Queuing time of packets, mean"
scalar AerocomSystem.airCraft[13].fifo 	queueLength:max 	4
attr title  "Statistic about queue's length, max"
scalar AerocomSystem.airCraft[13].fifo 	queueLength:mean 	0.86111111111111
attr title  "Statistic about queue's length, mean"
scalar AerocomSystem.airCraft[13].router 	numSwitch:sum 	46
attr title  "Number of switch operation, sum"
scalar AerocomSystem.airCraft[13].router 	queuingTime:mean 	0.25526655204952
attr title  "Queuing time of packets, mean"
scalar AerocomSystem.airCraft[14].fifo 	queueLength:max 	2
attr title  "Statistic about queue's length, max"
scalar AerocomSystem.airCraft[14].fifo 	queueLength:mean 	0.57692307692308
attr title  "Statistic about queue's length, mean"
scalar AerocomSystem.airCraft[14].router 	numSwitch:sum 	36
attr title  "Number of switch operation, sum"
scalar AerocomSystem.airCraft[14].router 	queuingTime:mean 	0.14325159697933
attr title  "Queuing time of packets, mean"
scalar AerocomSystem.airCraft[15].fifo 	queueLength:max 	3
attr title  "Statistic about queue's length, max"
scalar AerocomSystem.airCraft[15].fifo 	queueLength:mean 	0.62121212121212
attr title  "Statistic about queue's length, mean"
scalar AerocomSystem.airCraft[15].router 	numSwitch:sum 	41
attr title  "Number of switch operation, sum"
scalar AerocomSystem.airCraft[15].router 	queuingTime:mean 	0.15051495461375
attr title  "Queuing time of packets, mean"
scalar AerocomSystem.airCraft[16].fifo 	queueLength:max 	3
attr title  "Statistic about queue's length, max"
scalar AerocomSystem.airCraft[16].fifo 	queueLength:mean 	0.65789473684211
attr title  "Statistic about queue's length, mean"
scalar AerocomSystem.airCraft[16].router 	numSwitch:sum 	44
attr title  "Number of switch operation, sum"
scalar AerocomSystem.airCraft[16].router 	queuingTime:mean 	0.16915286557185
attr title  "Queuing time of packets, mean"
scalar AerocomSystem.airCraft[17].fifo 	queueLength:max 	3
attr title  "Statistic about queue's length, max"
scalar AerocomSystem.airCraft[17].fifo 	queueLength:mean 	0.67142857142857
attr title  "Statistic about queue's length, mean"
scalar AerocomSystem.airCraft[17].router 	numSwitch:sum 	48
attr title  "Number of switch operation, sum"
scalar AerocomSystem.airCraft[17].router 	queuingTime:mean 	0.18986477551227
attr title  "Queuing time of packets, mean"
scalar AerocomSystem.airCraft[18].fifo 	queueLength:max 	5
attr title  "Statistic about queue's length, max"
scalar AerocomSystem.airCraft[18].fifo 	queueLength:mean 	0.92307692307692
attr title  "Statistic about queue's length, mean"
scalar AerocomSystem.airCraft[18].router 	numSwitch:sum 	30
attr title  "Number of switch operation, sum"
scalar AerocomSystem.airCraft[18].router 	queuingTime:mean 	0.25991646431463
attr title  "Queuing time of packets, mean"
scalar AerocomSystem.airCraft[19].fifo 	queueLength:max 	2
attr title  "Statistic about queue's length, max"
scalar AerocomSystem.airCraft[19].fifo 	queueLength:mean 	0.72222222222222
attr title  "Statistic about queue's length, mean"
scalar AerocomSystem.airCraft[19].router 	numSwitch:sum 	49
attr title  "Number of switch operation, sum"
scalar AerocomSystem.airCraft[19].router 	queuingTime:mean 	0.20587692011138
attr title  "Queuing time of packets, mean"
scalar AerocomSystem.airCraft[20].fifo 	queueLength:max 	2
attr title  "Statistic about queue's length, max"
scalar AerocomSystem.airCraft[20].fifo 	queueLength:mean 	0.58333333333333
attr title  "Statistic about queue's length, mean"
scalar AerocomSystem.airCraft[20].router 	numSwitch:sum 	47
attr title  "Number of switch operation, sum"
scalar AerocomSystem.airCraft[20].router 	queuingTime:mean 	0.11226839682255
attr title  "Queuing time of packets, mean"
scalar AerocomSystem.airCraft[21].fifo 	queueLength:max 	2
attr title  "Statistic about queue's length, max"
scalar AerocomSystem.airCraft[21].fifo 	queueLength:mean 	0.62820512820513
attr title  "Statistic about queue's length, mean"
scalar AerocomSystem.airCraft[21].router 	numSwitch:sum 	48
attr title  "Number of switch operation, sum"
scalar AerocomSystem.airCraft[21].router 	queuingTime:mean 	0.21477055470015
attr title  "Queuing time of packets, mean"
scalar AerocomSystem.airCraft[22].fifo 	queueLength:max 	3
attr title  "Statistic about queue's length, max"
scalar AerocomSystem.airCraft[22].fifo 	queueLength:mean 	0.68181818181818
attr title  "Statistic about queue's length, mean"
scalar AerocomSystem.airCraft[22].router 	numSwitch:sum 	49
attr title  "Number of switch operation, sum"
scalar AerocomSystem.airCraft[22].router 	queuingTime:mean 	0.18992792062292
attr title  "Queuing time of packets, mean"
scalar AerocomSystem.airCraft[23].fifo 	queueLength:max 	2
attr title  "Statistic about queue's length, max"
scalar AerocomSystem.airCraft[23].fifo 	queueLength:mean 	0.5625
attr title  "Statistic about queue's length, mean"
scalar AerocomSystem.airCraft[23].router 	numSwitch:sum 	39
attr title  "Number of switch operation, sum"
scalar AerocomSystem.airCraft[23].router 	queuingTime:mean 	0.10255367383968
attr title  "Queuing time of packets, mean"
scalar AerocomSystem.airCraft[24].fifo 	queueLength:max 	6
attr title  "Statistic about queue's length, max"
scalar AerocomSystem.airCraft[24].fifo 	queueLength:mean 	1.1888888888889
attr title  "Statistic about queue's length, mean"
scalar AerocomSystem.airCraft[24].router 	numSwitch:sum 	53
attr title  "Number of switch operation, sum"
scalar AerocomSystem.airCraft[24].router 	queuingTime:mean 	0.36493623086738
attr title  "Queuing time of packets, mean"
scalar AerocomSystem.airCraft[25].fifo 	queueLength:max 	3
attr title  "Statistic about queue's length, max"
scalar AerocomSystem.airCraft[25].fifo 	queueLength:mean 	0.71875
attr title  "Statistic about queue's length, mean"
scalar AerocomSystem.airCraft[25].router 	numSwitch:sum 	43
attr title  "Number of switch operation, sum"
scalar AerocomSystem.airCraft[25].router 	queuingTime:mean 	0.16268351080086
attr title  "Queuing time of packets, mean"
scalar AerocomSystem.airCraft[26].fifo 	queueLength:max 	2
attr title  "Statistic about queue's length, max"
scalar AerocomSystem.airCraft[26].fifo 	queueLength:mean 	0.57142857142857
attr title  "Statistic about queue's length, mean"
scalar AerocomSystem.airCraft[26].router 	numSwitch:sum 	39
attr title  "Number of switch operation, sum"
scalar AerocomSystem.airCraft[26].router 	queuingTime:mean 	0.1426067782064
attr title  "Queuing time of packets, mean"
scalar AerocomSystem.airCraft[27].fifo 	queueLength:max 	3
attr title  "Statistic about queue's length, max"
scalar AerocomSystem.airCraft[27].fifo 	queueLength:mean 	0.69444444444444
attr title  "Statistic about queue's length, mean"
scalar AerocomSystem.airCraft[27].router 	numSwitch:sum 	51
attr title  "Number of switch operation, sum"
scalar AerocomSystem.airCraft[27].router 	queuingTime:mean 	0.17490565466633
attr title  "Queuing time of packets, mean"
scalar AerocomSystem.airCraft[28].fifo 	queueLength:max 	2
attr title  "Statistic about queue's length, max"
scalar AerocomSystem.airCraft[28].fifo 	queueLength:mean 	0.67391304347826
attr title  "Statistic about queue's length, mean"
scalar AerocomSystem.airCraft[28].router 	numSwitch:sum 	42
attr title  "Number of switch operation, sum"
scalar AerocomSystem.airCraft[28].router 	queuingTime:mean 	0.17874011023641
attr title  "Queuing time of packets, mean"
scalar AerocomSystem.airCraft[29].fifo 	queueLength:max 	3
attr title  "Statistic about queue's length, max"
scalar AerocomSystem.airCraft[29].fifo 	queueLength:mean 	0.72222222222222
attr title  "Statistic about queue's length, mean"
scalar AerocomSystem.airCraft[29].router 	numSwitch:sum 	54
attr title  "Number of switch operation, sum"
scalar AerocomSystem.airCraft[29].router 	queuingTime:mean 	0.29545350784032
attr title  "Queuing time of packets, mean"
scalar AerocomSystem.airCraft[30].fifo 	queueLength:max 	1
attr title  "Statistic about queue's length, max"
scalar AerocomSystem.airCraft[30].fifo 	queueLength:mean 	0.5
attr title  "Statistic about queue's length, mean"
scalar AerocomSystem.airCraft[30].router 	numSwitch:sum 	44
attr title  "Number of switch operation, sum"
scalar AerocomSystem.airCraft[30].router 	queuingTime:mean 	0.11801018431189
attr title  "Queuing time of packets, mean"
scalar AerocomSystem.airCraft[31].fifo 	queueLength:max 	2
attr title  "Statistic about queue's length, max"
scalar AerocomSystem.airCraft[31].fifo 	queueLength:mean 	0.63888888888889
attr title  "Statistic about queue's length, mean"
scalar AerocomSystem.airCraft[31].router 	numSwitch:sum 	41
attr title  "Number of switch operation, sum"
scalar AerocomSystem.airCraft[31].router 	queuingTime:mean 	0.21778432876177
attr title  "Queuing time of packets, mean"
scalar AerocomSystem.airCraft[32].fifo 	queueLength:max 	4
attr title  "Statistic about queue's length, max"
scalar AerocomSystem.airCraft[32].fifo 	queueLength:mean 	0.80769230769231
attr title  "Statistic about queue's length, mean"
scalar AerocomSystem.airCraft[32].router 	numSwitch:sum 	47
attr title  "Number of switch operation, sum"
scalar AerocomSystem.airCraft[32].router 	queuingTime:mean 	0.26099171364738
attr title  "Queuing time of packets, mean"
scalar AerocomSystem.airCraft[33].fifo 	queueLength:max 	2
attr title  "Statistic about queue's length, max"
scalar AerocomSystem.airCraft[33].fifo 	queueLength:mean 	0.65384615384615
attr title  "Statistic about queue's length, mean"
scalar AerocomSystem.airCraft[33].router 	numSwitch:sum 	45
attr title  "Number of switch operation, sum"
scalar AerocomSystem.airCraft[33].router 	queuingTime:mean 	0.25303858686662
attr title  "Queuing time of packets, mean"
scalar AerocomSystem.airCraft[34].fifo 	queueLength:max 	2
attr title  "Statistic about queue's length, max"
scalar AerocomSystem.airCraft[34].fifo 	queueLength:mean 	0.64814814814815
attr title  "Statistic about queue's length, mean"
scalar AerocomSystem.airCraft[34].router 	numSwitch:sum 	36
attr title  "Number of switch operation, sum"
scalar AerocomSystem.airCraft[34].router 	queuingTime:mean 	0.25341765042741
attr title  "Queuing time of packets, mean"
scalar AerocomSystem.airCraft[35].fifo 	queueLength:max 	2
attr title  "Statistic about queue's length, max"
scalar AerocomSystem.airCraft[35].fifo 	queueLength:mean 	0.66666666666667
attr title  "Statistic about queue's length, mean"
scalar AerocomSystem.airCraft[35].router 	numSwitch:sum 	42
attr title  "Number of switch operation, sum"
scalar AerocomSystem.airCraft[35].router 	queuingTime:mean 	0.1762548109902
attr title  "Queuing time of packets, mean"
scalar AerocomSystem.airCraft[36].fifo 	queueLength:max 	2
attr title  "Statistic about queue's length, max"
scalar AerocomSystem.airCraft[36].fifo 	queueLength:mean 	0.63636363636364
attr title  "Statistic about queue's length, mean"
scalar AerocomSystem.airCraft[36].router 	numSwitch:sum 	40
attr title  "Number of switch operation, sum"
scalar AerocomSystem.airCraft[36].router 	queuingTime:mean 	0.12638348646731
attr title  "Queuing time of packets, mean"
scalar AerocomSystem.airCraft[37].fifo 	queueLength:max 	2
attr title  "Statistic about queue's length, max"
scalar AerocomSystem.airCraft[37].fifo 	queueLength:mean 	0.60810810810811
attr title  "Statistic about queue's length, mean"
scalar AerocomSystem.airCraft[37].router 	numSwitch:sum 	40
attr title  "Number of switch operation, sum"
scalar AerocomSystem.airCraft[37].router 	queuingTime:mean 	0.22948582142165
attr title  "Queuing time of packets, mean"
scalar AerocomSystem.airCraft[38].fifo 	queueLength:max 	2
attr title  "Statistic about queue's length, max"
scalar AerocomSystem.airCraft[38].fifo 	queueLength:mean 	0.62903225806452
attr title  "Statistic about queue's length, mean"
scalar AerocomSystem.airCraft[38].router 	numSwitch:sum 	46
attr title  "Number of switch operation, sum"
scalar AerocomSystem.airCraft[38].router 	queuingTime:mean 	0.14570616133929
attr title  "Queuing time of packets, mean"
scalar AerocomSystem.airCraft[39].fifo 	queueLength:max 	3
attr title  "Statistic about queue's length, max"
scalar AerocomSystem.airCraft[39].fifo 	queueLength:mean 	0.66666666666667
attr title  "Statistic about queue's length, mean"
scalar AerocomSystem.airCraft[39].router 	numSwitch:sum 	40
attr title  "Number of switch operation, sum"
scalar AerocomSystem.airCraft[39].router 	queuingTime:mean 	0.11955946492226
attr title  "Queuing time of packets, mean"
scalar AerocomSystem.airCraft[40].fifo 	queueLength:max 	3
attr title  "Statistic about queue's length, max"
scalar AerocomSystem.airCraft[40].fifo 	queueLength:mean 	0.78125
attr title  "Statistic about queue's length, mean"
scalar AerocomSystem.airCraft[40].router 	numSwitch:sum 	41
attr title  "Number of switch operation, sum"
scalar AerocomSystem.airCraft[40].router 	queuingTime:mean 	0.21766289593335
attr title  "Queuing time of packets, mean"
scalar AerocomSystem.airCraft[41].fifo 	queueLength:max 	2
attr title  "Statistic about queue's length, max"
scalar AerocomSystem.airCraft[41].fifo 	queueLength:mean 	0.56896551724138
attr title  "Statistic about queue's length, mean"
scalar AerocomSystem.airCraft[41].router 	numSwitch:sum 	40
attr title  "Number of switch operation, sum"
scalar AerocomSystem.airCraft[41].router 	queuingTime:mean 	0.0967094450799
attr title  "Queuing time of packets, mean"
scalar AerocomSystem.airCraft[42].fifo 	queueLength:max 	2
attr title  "Statistic about queue's length, max"
scalar AerocomSystem.airCraft[42].fifo 	queueLength:mean 	0.53703703703704
attr title  "Statistic about queue's length, mean"
scalar AerocomSystem.airCraft[42].router 	numSwitch:sum 	36
attr title  "Number of switch operation, sum"
scalar AerocomSystem.airCraft[42].router 	queuingTime:mean 	0.15195778011425
attr title  "Queuing time of packets, mean"
scalar AerocomSystem.airCraft[43].fifo 	queueLength:max 	2
attr title  "Statistic about queue's length, max"
scalar AerocomSystem.airCraft[43].fifo 	queueLength:mean 	0.53448275862069
attr title  "Statistic about queue's length, mean"
scalar AerocomSystem.airCraft[43].router 	numSwitch:sum 	38
attr title  "Number of switch operation, sum"
scalar AerocomSystem.airCraft[43].router 	queuingTime:mean 	0.10210184934728
attr title  "Queuing time of packets, mean"
scalar AerocomSystem.airCraft[44].fifo 	queueLength:max 	3
attr title  "Statistic about queue's length, max"
scalar AerocomSystem.airCraft[44].fifo 	queueLength:mean 	0.70454545454545
attr title  "Statistic about queue's length, mean"
scalar AerocomSystem.airCraft[44].router 	numSwitch:sum 	49
attr title  "Number of switch operation, sum"
scalar AerocomSystem.airCraft[44].router 	queuingTime:mean 	0.29490648101419
attr title  "Queuing time of packets, mean"
scalar AerocomSystem.airCraft[45].fifo 	queueLength:max 	2
attr title  "Statistic about queue's length, max"
scalar AerocomSystem.airCraft[45].fifo 	queueLength:mean 	0.64285714285714
attr title  "Statistic about queue's length, mean"
scalar AerocomSystem.airCraft[45].router 	numSwitch:sum 	46
attr title  "Number of switch operation, sum"
scalar AerocomSystem.airCraft[45].router 	queuingTime:mean 	0.13150408135903
attr title  "Queuing time of packets, mean"
scalar AerocomSystem.airCraft[46].fifo 	queueLength:max 	1
attr title  "Statistic about queue's length, max"
scalar AerocomSystem.airCraft[46].fifo 	queueLength:mean 	0.5
attr title  "Statistic about queue's length, mean"
scalar AerocomSystem.airCraft[46].router 	numSwitch:sum 	33
attr title  "Number of switch operation, sum"
scalar AerocomSystem.airCraft[46].router 	queuingTime:mean 	0.15382156984932
attr title  "Queuing time of packets, mean"
scalar AerocomSystem.airCraft[47].fifo 	queueLength:max 	3
attr title  "Statistic about queue's length, max"
scalar AerocomSystem.airCraft[47].fifo 	queueLength:mean 	0.81428571428571
attr title  "Statistic about queue's length, mean"
scalar AerocomSystem.airCraft[47].router 	numSwitch:sum 	43
attr title  "Number of switch operation, sum"
scalar AerocomSystem.airCraft[47].router 	queuingTime:mean 	0.28385552946134
attr title  "Queuing time of packets, mean"
scalar AerocomSystem.airCraft[48].fifo 	queueLength:max 	2
attr title  "Statistic about queue's length, max"
scalar AerocomSystem.airCraft[48].fifo 	queueLength:mean 	0.66666666666667
attr title  "Statistic about queue's length, mean"
scalar AerocomSystem.airCraft[48].router 	numSwitch:sum 	29
attr title  "Number of switch operation, sum"
scalar AerocomSystem.airCraft[48].router 	queuingTime:mean 	0.20624404205281
attr title  "Queuing time of packets, mean"
scalar AerocomSystem.airCraft[49].fifo 	queueLength:max 	2
attr title  "Statistic about queue's length, max"
scalar AerocomSystem.airCraft[49].fifo 	queueLength:mean 	0.56666666666667
attr title  "Statistic about queue's length, mean"
scalar AerocomSystem.airCraft[49].router 	numSwitch:sum 	45
attr title  "Number of switch operation, sum"
scalar AerocomSystem.airCraft[49].router 	queuingTime:mean 	0.13906900790201
attr title  "Queuing time of packets, mean"
scalar AerocomSystem.controlTower 	responseTime:mean 	1.2849504118428
attr title  "Response time of arrived packets, mean"
attr unit  s
