version 2
run Exponential-810-20161215-09:18:50-12056
attr X 10
attr configname Exponential
attr datetime 20161215-09:18:50
attr experiment Exponential
attr inifile omnetpp.ini
attr iterationvars "$k=6, $t=6, $switchTime=6, $X=10"
attr iterationvars2 "$k=6, $t=6, $switchTime=6, $X=10, $repetition=0"
attr k 6
attr measurement "$k=6, $t=6, $switchTime=6, $X=10"
attr network AerocomSystem
attr processid 12056
attr repetition 0
attr replication #0
attr resultdir results
attr runnumber 810
attr seedset 0
attr switchTime 6
attr t 6
param **.N 50
param **.numberOfServers 5
param **.targetCapacity "uniform(100bps, 2000bps, 0)"
param AerocomSystem.airCraft[*].router.X "${X=10, 30, 50}"
param AerocomSystem.airCraft[*].router.switchTime "${switchTime=0..10 step 2}s"
param AerocomSystem.airCraft[*].server[*].t "exponential(${t=0.5, 6, 50}s, 2)"
param AerocomSystem.airCraft[*].source.k "exponential(${k=1, 6, 12}s, 1)"
param AerocomSystem.airCraft[*].source.packetSize 1024b

scalar . 	X 	10
scalar . 	k 	6
scalar . 	switchTime 	6
scalar . 	t 	6
scalar AerocomSystem.airCraft[0].fifo 	queueLength:max 	5
attr title  "Statistic about queue's length, max"
scalar AerocomSystem.airCraft[0].fifo 	queueLength:mean 	1.1065088757396
attr title  "Statistic about queue's length, mean"
scalar AerocomSystem.airCraft[0].router 	numSwitch:sum 	44
attr title  "Number of switch operation, sum"
scalar AerocomSystem.airCraft[0].router 	queuingTime:mean 	1.9635310337169
attr title  "Queuing time of packets, mean"
scalar AerocomSystem.airCraft[1].fifo 	queueLength:max 	4
attr title  "Statistic about queue's length, max"
scalar AerocomSystem.airCraft[1].fifo 	queueLength:mean 	1.099173553719
attr title  "Statistic about queue's length, mean"
scalar AerocomSystem.airCraft[1].router 	numSwitch:sum 	40
attr title  "Number of switch operation, sum"
scalar AerocomSystem.airCraft[1].router 	queuingTime:mean 	1.5459298268414
attr title  "Queuing time of packets, mean"
scalar AerocomSystem.airCraft[2].fifo 	queueLength:max 	5
attr title  "Statistic about queue's length, max"
scalar AerocomSystem.airCraft[2].fifo 	queueLength:mean 	1.2474226804124
attr title  "Statistic about queue's length, mean"
scalar AerocomSystem.airCraft[2].router 	numSwitch:sum 	36
attr title  "Number of switch operation, sum"
scalar AerocomSystem.airCraft[2].router 	queuingTime:mean 	1.3806014759151
attr title  "Queuing time of packets, mean"
scalar AerocomSystem.airCraft[3].fifo 	queueLength:max 	4
attr title  "Statistic about queue's length, max"
scalar AerocomSystem.airCraft[3].fifo 	queueLength:mean 	0.98333333333333
attr title  "Statistic about queue's length, mean"
scalar AerocomSystem.airCraft[3].router 	numSwitch:sum 	49
attr title  "Number of switch operation, sum"
scalar AerocomSystem.airCraft[3].router 	queuingTime:mean 	1.3537212546341
attr title  "Queuing time of packets, mean"
scalar AerocomSystem.airCraft[4].fifo 	queueLength:max 	4
attr title  "Statistic about queue's length, max"
scalar AerocomSystem.airCraft[4].fifo 	queueLength:mean 	0.97368421052632
attr title  "Statistic about queue's length, mean"
scalar AerocomSystem.airCraft[4].router 	numSwitch:sum 	51
attr title  "Number of switch operation, sum"
scalar AerocomSystem.airCraft[4].router 	queuingTime:mean 	1.4947285074179
attr title  "Queuing time of packets, mean"
scalar AerocomSystem.airCraft[5].fifo 	queueLength:max 	5
attr title  "Statistic about queue's length, max"
scalar AerocomSystem.airCraft[5].fifo 	queueLength:mean 	1.4578947368421
attr title  "Statistic about queue's length, mean"
scalar AerocomSystem.airCraft[5].router 	numSwitch:sum 	51
attr title  "Number of switch operation, sum"
scalar AerocomSystem.airCraft[5].router 	queuingTime:mean 	2.6300127083077
attr title  "Queuing time of packets, mean"
scalar AerocomSystem.airCraft[6].fifo 	queueLength:max 	4
attr title  "Statistic about queue's length, max"
scalar AerocomSystem.airCraft[6].fifo 	queueLength:mean 	0.97637795275591
attr title  "Statistic about queue's length, mean"
scalar AerocomSystem.airCraft[6].router 	numSwitch:sum 	37
attr title  "Number of switch operation, sum"
scalar AerocomSystem.airCraft[6].router 	queuingTime:mean 	1.3101863713006
attr title  "Queuing time of packets, mean"
scalar AerocomSystem.airCraft[7].fifo 	queueLength:max 	5
attr title  "Statistic about queue's length, max"
scalar AerocomSystem.airCraft[7].fifo 	queueLength:mean 	1.2241379310345
attr title  "Statistic about queue's length, mean"
scalar AerocomSystem.airCraft[7].router 	numSwitch:sum 	40
attr title  "Number of switch operation, sum"
scalar AerocomSystem.airCraft[7].router 	queuingTime:mean 	1.4367895171058
attr title  "Queuing time of packets, mean"
scalar AerocomSystem.airCraft[8].fifo 	queueLength:max 	6
attr title  "Statistic about queue's length, max"
scalar AerocomSystem.airCraft[8].fifo 	queueLength:mean 	1.5240963855422
attr title  "Statistic about queue's length, mean"
scalar AerocomSystem.airCraft[8].router 	numSwitch:sum 	47
attr title  "Number of switch operation, sum"
scalar AerocomSystem.airCraft[8].router 	queuingTime:mean 	2.2308197564147
attr title  "Queuing time of packets, mean"
scalar AerocomSystem.airCraft[9].fifo 	queueLength:max 	4
attr title  "Statistic about queue's length, max"
scalar AerocomSystem.airCraft[9].fifo 	queueLength:mean 	1.0135135135135
attr title  "Statistic about queue's length, mean"
scalar AerocomSystem.airCraft[9].router 	numSwitch:sum 	47
attr title  "Number of switch operation, sum"
scalar AerocomSystem.airCraft[9].router 	queuingTime:mean 	1.4047242613863
attr title  "Queuing time of packets, mean"
scalar AerocomSystem.airCraft[10].fifo 	queueLength:max 	4
attr title  "Statistic about queue's length, max"
scalar AerocomSystem.airCraft[10].fifo 	queueLength:mean 	0.95901639344262
attr title  "Statistic about queue's length, mean"
scalar AerocomSystem.airCraft[10].router 	numSwitch:sum 	41
attr title  "Number of switch operation, sum"
scalar AerocomSystem.airCraft[10].router 	queuingTime:mean 	1.5497084551226
attr title  "Queuing time of packets, mean"
scalar AerocomSystem.airCraft[11].fifo 	queueLength:max 	3
attr title  "Statistic about queue's length, max"
scalar AerocomSystem.airCraft[11].fifo 	queueLength:mean 	0.90983606557377
attr title  "Statistic about queue's length, mean"
scalar AerocomSystem.airCraft[11].router 	numSwitch:sum 	36
attr title  "Number of switch operation, sum"
scalar AerocomSystem.airCraft[11].router 	queuingTime:mean 	1.1700189970684
attr title  "Queuing time of packets, mean"
scalar AerocomSystem.airCraft[12].fifo 	queueLength:max 	4
attr title  "Statistic about queue's length, max"
scalar AerocomSystem.airCraft[12].fifo 	queueLength:mean 	1.120253164557
attr title  "Statistic about queue's length, mean"
scalar AerocomSystem.airCraft[12].router 	numSwitch:sum 	51
attr title  "Number of switch operation, sum"
scalar AerocomSystem.airCraft[12].router 	queuingTime:mean 	2.0935900967318
attr title  "Queuing time of packets, mean"
scalar AerocomSystem.airCraft[13].fifo 	queueLength:max 	5
attr title  "Statistic about queue's length, max"
scalar AerocomSystem.airCraft[13].fifo 	queueLength:mean 	1.1655629139073
attr title  "Statistic about queue's length, mean"
scalar AerocomSystem.airCraft[13].router 	numSwitch:sum 	39
attr title  "Number of switch operation, sum"
scalar AerocomSystem.airCraft[13].router 	queuingTime:mean 	1.6938739497599
attr title  "Queuing time of packets, mean"
scalar AerocomSystem.airCraft[14].fifo 	queueLength:max 	3
attr title  "Statistic about queue's length, max"
scalar AerocomSystem.airCraft[14].fifo 	queueLength:mean 	0.96031746031746
attr title  "Statistic about queue's length, mean"
scalar AerocomSystem.airCraft[14].router 	numSwitch:sum 	38
attr title  "Number of switch operation, sum"
scalar AerocomSystem.airCraft[14].router 	queuingTime:mean 	1.230986815069
attr title  "Queuing time of packets, mean"
scalar AerocomSystem.airCraft[15].fifo 	queueLength:max 	5
attr title  "Statistic about queue's length, max"
scalar AerocomSystem.airCraft[15].fifo 	queueLength:mean 	0.95652173913043
attr title  "Statistic about queue's length, mean"
scalar AerocomSystem.airCraft[15].router 	numSwitch:sum 	32
attr title  "Number of switch operation, sum"
scalar AerocomSystem.airCraft[15].router 	queuingTime:mean 	1.5790168934097
attr title  "Queuing time of packets, mean"
scalar AerocomSystem.airCraft[16].fifo 	queueLength:max 	6
attr title  "Statistic about queue's length, max"
scalar AerocomSystem.airCraft[16].fifo 	queueLength:mean 	1.4974358974359
attr title  "Statistic about queue's length, mean"
scalar AerocomSystem.airCraft[16].router 	numSwitch:sum 	53
attr title  "Number of switch operation, sum"
scalar AerocomSystem.airCraft[16].router 	queuingTime:mean 	3.071524238754
attr title  "Queuing time of packets, mean"
scalar AerocomSystem.airCraft[17].fifo 	queueLength:max 	6
attr title  "Statistic about queue's length, max"
scalar AerocomSystem.airCraft[17].fifo 	queueLength:mean 	1.6029411764706
attr title  "Statistic about queue's length, mean"
scalar AerocomSystem.airCraft[17].router 	numSwitch:sum 	38
attr title  "Number of switch operation, sum"
scalar AerocomSystem.airCraft[17].router 	queuingTime:mean 	1.8588092411784
attr title  "Queuing time of packets, mean"
scalar AerocomSystem.airCraft[18].fifo 	queueLength:max 	4
attr title  "Statistic about queue's length, max"
scalar AerocomSystem.airCraft[18].fifo 	queueLength:mean 	1.1463414634146
attr title  "Statistic about queue's length, mean"
scalar AerocomSystem.airCraft[18].router 	numSwitch:sum 	53
attr title  "Number of switch operation, sum"
scalar AerocomSystem.airCraft[18].router 	queuingTime:mean 	1.8502870736495
attr title  "Queuing time of packets, mean"
scalar AerocomSystem.airCraft[19].fifo 	queueLength:max 	4
attr title  "Statistic about queue's length, max"
scalar AerocomSystem.airCraft[19].fifo 	queueLength:mean 	1.1
attr title  "Statistic about queue's length, mean"
scalar AerocomSystem.airCraft[19].router 	numSwitch:sum 	41
attr title  "Number of switch operation, sum"
scalar AerocomSystem.airCraft[19].router 	queuingTime:mean 	1.4342195622131
attr title  "Queuing time of packets, mean"
scalar AerocomSystem.airCraft[20].fifo 	queueLength:max 	4
attr title  "Statistic about queue's length, max"
scalar AerocomSystem.airCraft[20].fifo 	queueLength:mean 	1.0454545454545
attr title  "Statistic about queue's length, mean"
scalar AerocomSystem.airCraft[20].router 	numSwitch:sum 	36
attr title  "Number of switch operation, sum"
scalar AerocomSystem.airCraft[20].router 	queuingTime:mean 	1.1579539494112
attr title  "Queuing time of packets, mean"
scalar AerocomSystem.airCraft[21].fifo 	queueLength:max 	5
attr title  "Statistic about queue's length, max"
scalar AerocomSystem.airCraft[21].fifo 	queueLength:mean 	1.4420289855072
attr title  "Statistic about queue's length, mean"
scalar AerocomSystem.airCraft[21].router 	numSwitch:sum 	42
attr title  "Number of switch operation, sum"
scalar AerocomSystem.airCraft[21].router 	queuingTime:mean 	2.2512851463175
attr title  "Queuing time of packets, mean"
scalar AerocomSystem.airCraft[22].fifo 	queueLength:max 	5
attr title  "Statistic about queue's length, max"
scalar AerocomSystem.airCraft[22].fifo 	queueLength:mean 	1.2432432432432
attr title  "Statistic about queue's length, mean"
scalar AerocomSystem.airCraft[22].router 	numSwitch:sum 	47
attr title  "Number of switch operation, sum"
scalar AerocomSystem.airCraft[22].router 	queuingTime:mean 	1.7394199215257
attr title  "Queuing time of packets, mean"
scalar AerocomSystem.airCraft[23].fifo 	queueLength:max 	5
attr title  "Statistic about queue's length, max"
scalar AerocomSystem.airCraft[23].fifo 	queueLength:mean 	1.2
attr title  "Statistic about queue's length, mean"
scalar AerocomSystem.airCraft[23].router 	numSwitch:sum 	41
attr title  "Number of switch operation, sum"
scalar AerocomSystem.airCraft[23].router 	queuingTime:mean 	1.6091898615331
attr title  "Queuing time of packets, mean"
scalar AerocomSystem.airCraft[24].fifo 	queueLength:max 	6
attr title  "Statistic about queue's length, max"
scalar AerocomSystem.airCraft[24].fifo 	queueLength:mean 	1.2164179104478
attr title  "Statistic about queue's length, mean"
scalar AerocomSystem.airCraft[24].router 	numSwitch:sum 	43
attr title  "Number of switch operation, sum"
scalar AerocomSystem.airCraft[24].router 	queuingTime:mean 	1.2941841957784
attr title  "Queuing time of packets, mean"
scalar AerocomSystem.airCraft[25].fifo 	queueLength:max 	4
attr title  "Statistic about queue's length, max"
scalar AerocomSystem.airCraft[25].fifo 	queueLength:mean 	0.94488188976378
attr title  "Statistic about queue's length, mean"
scalar AerocomSystem.airCraft[25].router 	numSwitch:sum 	50
attr title  "Number of switch operation, sum"
scalar AerocomSystem.airCraft[25].router 	queuingTime:mean 	1.5853225225592
attr title  "Queuing time of packets, mean"
scalar AerocomSystem.airCraft[26].fifo 	queueLength:max 	3
attr title  "Statistic about queue's length, max"
scalar AerocomSystem.airCraft[26].fifo 	queueLength:mean 	0.89147286821705
attr title  "Statistic about queue's length, mean"
scalar AerocomSystem.airCraft[26].router 	numSwitch:sum 	46
attr title  "Number of switch operation, sum"
scalar AerocomSystem.airCraft[26].router 	queuingTime:mean 	1.1524430352322
attr title  "Queuing time of packets, mean"
scalar AerocomSystem.airCraft[27].fifo 	queueLength:max 	5
attr title  "Statistic about queue's length, max"
scalar AerocomSystem.airCraft[27].fifo 	queueLength:mean 	1.4615384615385
attr title  "Statistic about queue's length, mean"
scalar AerocomSystem.airCraft[27].router 	numSwitch:sum 	51
attr title  "Number of switch operation, sum"
scalar AerocomSystem.airCraft[27].router 	queuingTime:mean 	2.2407014253896
attr title  "Queuing time of packets, mean"
scalar AerocomSystem.airCraft[28].fifo 	queueLength:max 	4
attr title  "Statistic about queue's length, max"
scalar AerocomSystem.airCraft[28].fifo 	queueLength:mean 	1.3513513513514
attr title  "Statistic about queue's length, mean"
scalar AerocomSystem.airCraft[28].router 	numSwitch:sum 	40
attr title  "Number of switch operation, sum"
scalar AerocomSystem.airCraft[28].router 	queuingTime:mean 	1.572116584342
attr title  "Queuing time of packets, mean"
scalar AerocomSystem.airCraft[29].fifo 	queueLength:max 	7
attr title  "Statistic about queue's length, max"
scalar AerocomSystem.airCraft[29].fifo 	queueLength:mean 	1.7045454545455
attr title  "Statistic about queue's length, mean"
scalar AerocomSystem.airCraft[29].router 	numSwitch:sum 	46
attr title  "Number of switch operation, sum"
scalar AerocomSystem.airCraft[29].router 	queuingTime:mean 	2.7048058240103
attr title  "Queuing time of packets, mean"
scalar AerocomSystem.airCraft[30].fifo 	queueLength:max 	6
attr title  "Statistic about queue's length, max"
scalar AerocomSystem.airCraft[30].fifo 	queueLength:mean 	1.0714285714286
attr title  "Statistic about queue's length, mean"
scalar AerocomSystem.airCraft[30].router 	numSwitch:sum 	42
attr title  "Number of switch operation, sum"
scalar AerocomSystem.airCraft[30].router 	queuingTime:mean 	1.6158463432759
attr title  "Queuing time of packets, mean"
scalar AerocomSystem.airCraft[31].fifo 	queueLength:max 	6
attr title  "Statistic about queue's length, max"
scalar AerocomSystem.airCraft[31].fifo 	queueLength:mean 	1.6515151515152
attr title  "Statistic about queue's length, mean"
scalar AerocomSystem.airCraft[31].router 	numSwitch:sum 	57
attr title  "Number of switch operation, sum"
scalar AerocomSystem.airCraft[31].router 	queuingTime:mean 	3.4666519898285
attr title  "Queuing time of packets, mean"
scalar AerocomSystem.airCraft[32].fifo 	queueLength:max 	3
attr title  "Statistic about queue's length, max"
scalar AerocomSystem.airCraft[32].fifo 	queueLength:mean 	0.95833333333333
attr title  "Statistic about queue's length, mean"
scalar AerocomSystem.airCraft[32].router 	numSwitch:sum 	35
attr title  "Number of switch operation, sum"
scalar AerocomSystem.airCraft[32].router 	queuingTime:mean 	1.2717009393421
attr title  "Queuing time of packets, mean"
scalar AerocomSystem.airCraft[33].fifo 	queueLength:max 	3
attr title  "Statistic about queue's length, max"
scalar AerocomSystem.airCraft[33].fifo 	queueLength:mean 	1.0621118012422
attr title  "Statistic about queue's length, mean"
scalar AerocomSystem.airCraft[33].router 	numSwitch:sum 	45
attr title  "Number of switch operation, sum"
scalar AerocomSystem.airCraft[33].router 	queuingTime:mean 	1.7528566259583
attr title  "Queuing time of packets, mean"
scalar AerocomSystem.airCraft[34].fifo 	queueLength:max 	5
attr title  "Statistic about queue's length, max"
scalar AerocomSystem.airCraft[34].fifo 	queueLength:mean 	1.1142857142857
attr title  "Statistic about queue's length, mean"
scalar AerocomSystem.airCraft[34].router 	numSwitch:sum 	48
attr title  "Number of switch operation, sum"
scalar AerocomSystem.airCraft[34].router 	queuingTime:mean 	1.7875878790539
attr title  "Queuing time of packets, mean"
scalar AerocomSystem.airCraft[35].fifo 	queueLength:max 	3
attr title  "Statistic about queue's length, max"
scalar AerocomSystem.airCraft[35].fifo 	queueLength:mean 	0.87704918032787
attr title  "Statistic about queue's length, mean"
scalar AerocomSystem.airCraft[35].router 	numSwitch:sum 	41
attr title  "Number of switch operation, sum"
scalar AerocomSystem.airCraft[35].router 	queuingTime:mean 	1.4444791147109
attr title  "Queuing time of packets, mean"
scalar AerocomSystem.airCraft[36].fifo 	queueLength:max 	6
attr title  "Statistic about queue's length, max"
scalar AerocomSystem.airCraft[36].fifo 	queueLength:mean 	1.4388489208633
attr title  "Statistic about queue's length, mean"
scalar AerocomSystem.airCraft[36].router 	numSwitch:sum 	49
attr title  "Number of switch operation, sum"
scalar AerocomSystem.airCraft[36].router 	queuingTime:mean 	1.880329442055
attr title  "Queuing time of packets, mean"
scalar AerocomSystem.airCraft[37].fifo 	queueLength:max 	4
attr title  "Statistic about queue's length, max"
scalar AerocomSystem.airCraft[37].fifo 	queueLength:mean 	1.0072463768116
attr title  "Statistic about queue's length, mean"
scalar AerocomSystem.airCraft[37].router 	numSwitch:sum 	42
attr title  "Number of switch operation, sum"
scalar AerocomSystem.airCraft[37].router 	queuingTime:mean 	1.5529037378581
attr title  "Queuing time of packets, mean"
scalar AerocomSystem.airCraft[38].fifo 	queueLength:max 	7
attr title  "Statistic about queue's length, max"
scalar AerocomSystem.airCraft[38].fifo 	queueLength:mean 	1.7735849056604
attr title  "Statistic about queue's length, mean"
scalar AerocomSystem.airCraft[38].router 	numSwitch:sum 	44
attr title  "Number of switch operation, sum"
scalar AerocomSystem.airCraft[38].router 	queuingTime:mean 	3.079161524053
attr title  "Queuing time of packets, mean"
scalar AerocomSystem.airCraft[39].fifo 	queueLength:max 	3
attr title  "Statistic about queue's length, max"
scalar AerocomSystem.airCraft[39].fifo 	queueLength:mean 	0.76666666666667
attr title  "Statistic about queue's length, mean"
scalar AerocomSystem.airCraft[39].router 	numSwitch:sum 	41
attr title  "Number of switch operation, sum"
scalar AerocomSystem.airCraft[39].router 	queuingTime:mean 	1.0369398732248
attr title  "Queuing time of packets, mean"
scalar AerocomSystem.airCraft[40].fifo 	queueLength:max 	4
attr title  "Statistic about queue's length, max"
scalar AerocomSystem.airCraft[40].fifo 	queueLength:mean 	1.3983050847458
attr title  "Statistic about queue's length, mean"
scalar AerocomSystem.airCraft[40].router 	numSwitch:sum 	45
attr title  "Number of switch operation, sum"
scalar AerocomSystem.airCraft[40].router 	queuingTime:mean 	1.9819781486333
attr title  "Queuing time of packets, mean"
scalar AerocomSystem.airCraft[41].fifo 	queueLength:max 	6
attr title  "Statistic about queue's length, max"
scalar AerocomSystem.airCraft[41].fifo 	queueLength:mean 	1.4375
attr title  "Statistic about queue's length, mean"
scalar AerocomSystem.airCraft[41].router 	numSwitch:sum 	50
attr title  "Number of switch operation, sum"
scalar AerocomSystem.airCraft[41].router 	queuingTime:mean 	2.5212739598472
attr title  "Queuing time of packets, mean"
scalar AerocomSystem.airCraft[42].fifo 	queueLength:max 	5
attr title  "Statistic about queue's length, max"
scalar AerocomSystem.airCraft[42].fifo 	queueLength:mean 	1.075
attr title  "Statistic about queue's length, mean"
scalar AerocomSystem.airCraft[42].router 	numSwitch:sum 	41
attr title  "Number of switch operation, sum"
scalar AerocomSystem.airCraft[42].router 	queuingTime:mean 	1.3488063692941
attr title  "Queuing time of packets, mean"
scalar AerocomSystem.airCraft[43].fifo 	queueLength:max 	4
attr title  "Statistic about queue's length, max"
scalar AerocomSystem.airCraft[43].fifo 	queueLength:mean 	0.98620689655172
attr title  "Statistic about queue's length, mean"
scalar AerocomSystem.airCraft[43].router 	numSwitch:sum 	50
attr title  "Number of switch operation, sum"
scalar AerocomSystem.airCraft[43].router 	queuingTime:mean 	1.5235282606729
attr title  "Queuing time of packets, mean"
scalar AerocomSystem.airCraft[44].fifo 	queueLength:max 	9
attr title  "Statistic about queue's length, max"
scalar AerocomSystem.airCraft[44].fifo 	queueLength:mean 	1.7658227848101
attr title  "Statistic about queue's length, mean"
scalar AerocomSystem.airCraft[44].router 	numSwitch:sum 	40
attr title  "Number of switch operation, sum"
scalar AerocomSystem.airCraft[44].router 	queuingTime:mean 	2.183496510753
attr title  "Queuing time of packets, mean"
scalar AerocomSystem.airCraft[45].fifo 	queueLength:max 	4
attr title  "Statistic about queue's length, max"
scalar AerocomSystem.airCraft[45].fifo 	queueLength:mean 	0.86206896551724
attr title  "Statistic about queue's length, mean"
scalar AerocomSystem.airCraft[45].router 	numSwitch:sum 	37
attr title  "Number of switch operation, sum"
scalar AerocomSystem.airCraft[45].router 	queuingTime:mean 	1.0423107411768
attr title  "Queuing time of packets, mean"
scalar AerocomSystem.airCraft[46].fifo 	queueLength:max 	4
attr title  "Statistic about queue's length, max"
scalar AerocomSystem.airCraft[46].fifo 	queueLength:mean 	1.078125
attr title  "Statistic about queue's length, mean"
scalar AerocomSystem.airCraft[46].router 	numSwitch:sum 	40
attr title  "Number of switch operation, sum"
scalar AerocomSystem.airCraft[46].router 	queuingTime:mean 	1.4190864858884
attr title  "Queuing time of packets, mean"
scalar AerocomSystem.airCraft[47].fifo 	queueLength:max 	4
attr title  "Statistic about queue's length, max"
scalar AerocomSystem.airCraft[47].fifo 	queueLength:mean 	1.0714285714286
attr title  "Statistic about queue's length, mean"
scalar AerocomSystem.airCraft[47].router 	numSwitch:sum 	43
attr title  "Number of switch operation, sum"
scalar AerocomSystem.airCraft[47].router 	queuingTime:mean 	1.5199904122013
attr title  "Queuing time of packets, mean"
scalar AerocomSystem.airCraft[48].fifo 	queueLength:max 	4
attr title  "Statistic about queue's length, max"
scalar AerocomSystem.airCraft[48].fifo 	queueLength:mean 	1.0217391304348
attr title  "Statistic about queue's length, mean"
scalar AerocomSystem.airCraft[48].router 	numSwitch:sum 	48
attr title  "Number of switch operation, sum"
scalar AerocomSystem.airCraft[48].router 	queuingTime:mean 	1.76554351595
attr title  "Queuing time of packets, mean"
scalar AerocomSystem.airCraft[49].fifo 	queueLength:max 	5
attr title  "Statistic about queue's length, max"
scalar AerocomSystem.airCraft[49].fifo 	queueLength:mean 	1.2974683544304
attr title  "Statistic about queue's length, mean"
scalar AerocomSystem.airCraft[49].router 	numSwitch:sum 	46
attr title  "Number of switch operation, sum"
scalar AerocomSystem.airCraft[49].router 	queuingTime:mean 	1.7275346409496
attr title  "Queuing time of packets, mean"
scalar AerocomSystem.controlTower 	responseTime:mean 	4.2808771178093
attr title  "Response time of arrived packets, mean"
attr unit  s
