version 2
run Exponential-120-20161215-08:14:17-2717
attr X 10
attr configname Exponential
attr datetime 20161215-08:14:17
attr experiment Exponential
attr inifile omnetpp.ini
attr iterationvars "$k=1, $t=0.5, $switchTime=8, $X=10"
attr iterationvars2 "$k=1, $t=0.5, $switchTime=8, $X=10, $repetition=0"
attr k 1
attr measurement "$k=1, $t=0.5, $switchTime=8, $X=10"
attr network AerocomSystem
attr processid 2717
attr repetition 0
attr replication #0
attr resultdir results
attr runnumber 120
attr seedset 0
attr switchTime 8
attr t 0.5
param **.N 50
param **.numberOfServers 5
param **.targetCapacity "uniform(100bps, 2000bps, 0)"
param AerocomSystem.airCraft[*].router.X "${X=10, 30, 50}"
param AerocomSystem.airCraft[*].router.switchTime "${switchTime=0..10 step 2}s"
param AerocomSystem.airCraft[*].server[*].t "exponential(${t=0.5, 6, 50}s, 2)"
param AerocomSystem.airCraft[*].source.k "exponential(${k=1, 6, 12}s, 1)"
param AerocomSystem.airCraft[*].source.packetSize 1024b

scalar . 	X 	10
scalar . 	k 	1
scalar . 	switchTime 	8
scalar . 	t 	0.5
scalar AerocomSystem.airCraft[0].fifo 	queueLength:max 	763
attr title  "Statistic about queue's length, max"
scalar AerocomSystem.airCraft[0].fifo 	queueLength:mean 	390.2108194113
attr title  "Statistic about queue's length, mean"
scalar AerocomSystem.airCraft[0].router 	numSwitch:sum 	91
attr title  "Number of switch operation, sum"
scalar AerocomSystem.airCraft[0].router 	queuingTime:mean 	390.15437124039
attr title  "Queuing time of packets, mean"
scalar AerocomSystem.airCraft[1].fifo 	queueLength:max 	734
attr title  "Statistic about queue's length, max"
scalar AerocomSystem.airCraft[1].fifo 	queueLength:mean 	374.0986949429
attr title  "Statistic about queue's length, mean"
scalar AerocomSystem.airCraft[1].router 	numSwitch:sum 	91
attr title  "Number of switch operation, sum"
scalar AerocomSystem.airCraft[1].router 	queuingTime:mean 	381.72000593412
attr title  "Queuing time of packets, mean"
scalar AerocomSystem.airCraft[2].fifo 	queueLength:max 	716
attr title  "Statistic about queue's length, max"
scalar AerocomSystem.airCraft[2].fifo 	queueLength:mean 	354.4872
attr title  "Statistic about queue's length, mean"
scalar AerocomSystem.airCraft[2].router 	numSwitch:sum 	88
attr title  "Number of switch operation, sum"
scalar AerocomSystem.airCraft[2].router 	queuingTime:mean 	353.54328680141
attr title  "Queuing time of packets, mean"
scalar AerocomSystem.airCraft[3].fifo 	queueLength:max 	753
attr title  "Statistic about queue's length, max"
scalar AerocomSystem.airCraft[3].fifo 	queueLength:mean 	376.08603896104
attr title  "Statistic about queue's length, mean"
scalar AerocomSystem.airCraft[3].router 	numSwitch:sum 	90
attr title  "Number of switch operation, sum"
scalar AerocomSystem.airCraft[3].router 	queuingTime:mean 	382.81003273594
attr title  "Queuing time of packets, mean"
scalar AerocomSystem.airCraft[4].fifo 	queueLength:max 	768
attr title  "Statistic about queue's length, max"
scalar AerocomSystem.airCraft[4].fifo 	queueLength:mean 	382.85348837209
attr title  "Statistic about queue's length, mean"
scalar AerocomSystem.airCraft[4].router 	numSwitch:sum 	87
attr title  "Number of switch operation, sum"
scalar AerocomSystem.airCraft[4].router 	queuingTime:mean 	379.87776727582
attr title  "Queuing time of packets, mean"
scalar AerocomSystem.airCraft[5].fifo 	queueLength:max 	769
attr title  "Statistic about queue's length, max"
scalar AerocomSystem.airCraft[5].fifo 	queueLength:mean 	390.73807662236
attr title  "Statistic about queue's length, mean"
scalar AerocomSystem.airCraft[5].router 	numSwitch:sum 	88
attr title  "Number of switch operation, sum"
scalar AerocomSystem.airCraft[5].router 	queuingTime:mean 	385.27594217978
attr title  "Queuing time of packets, mean"
scalar AerocomSystem.airCraft[6].fifo 	queueLength:max 	698
attr title  "Statistic about queue's length, max"
scalar AerocomSystem.airCraft[6].fifo 	queueLength:mean 	335.8432304038
attr title  "Statistic about queue's length, mean"
scalar AerocomSystem.airCraft[6].router 	numSwitch:sum 	88
attr title  "Number of switch operation, sum"
scalar AerocomSystem.airCraft[6].router 	queuingTime:mean 	330.29715820445
attr title  "Queuing time of packets, mean"
scalar AerocomSystem.airCraft[7].fifo 	queueLength:max 	763
attr title  "Statistic about queue's length, max"
scalar AerocomSystem.airCraft[7].fifo 	queueLength:mean 	382.19292851653
attr title  "Statistic about queue's length, mean"
scalar AerocomSystem.airCraft[7].router 	numSwitch:sum 	87
attr title  "Number of switch operation, sum"
scalar AerocomSystem.airCraft[7].router 	queuingTime:mean 	360.62315682973
attr title  "Queuing time of packets, mean"
scalar AerocomSystem.airCraft[8].fifo 	queueLength:max 	717
attr title  "Statistic about queue's length, max"
scalar AerocomSystem.airCraft[8].fifo 	queueLength:mean 	364.983159583
attr title  "Statistic about queue's length, mean"
scalar AerocomSystem.airCraft[8].router 	numSwitch:sum 	88
attr title  "Number of switch operation, sum"
scalar AerocomSystem.airCraft[8].router 	queuingTime:mean 	379.74241090834
attr title  "Queuing time of packets, mean"
scalar AerocomSystem.airCraft[9].fifo 	queueLength:max 	746
attr title  "Statistic about queue's length, max"
scalar AerocomSystem.airCraft[9].fifo 	queueLength:mean 	384.45911949686
attr title  "Statistic about queue's length, mean"
scalar AerocomSystem.airCraft[9].router 	numSwitch:sum 	88
attr title  "Number of switch operation, sum"
scalar AerocomSystem.airCraft[9].router 	queuingTime:mean 	392.73144110289
attr title  "Queuing time of packets, mean"
scalar AerocomSystem.airCraft[10].fifo 	queueLength:max 	720
attr title  "Statistic about queue's length, max"
scalar AerocomSystem.airCraft[10].fifo 	queueLength:mean 	363.73981191223
attr title  "Statistic about queue's length, mean"
scalar AerocomSystem.airCraft[10].router 	numSwitch:sum 	85
attr title  "Number of switch operation, sum"
scalar AerocomSystem.airCraft[10].router 	queuingTime:mean 	361.46777710694
attr title  "Queuing time of packets, mean"
scalar AerocomSystem.airCraft[11].fifo 	queueLength:max 	729
attr title  "Statistic about queue's length, max"
scalar AerocomSystem.airCraft[11].fifo 	queueLength:mean 	363.79414157852
attr title  "Statistic about queue's length, mean"
scalar AerocomSystem.airCraft[11].router 	numSwitch:sum 	89
attr title  "Number of switch operation, sum"
scalar AerocomSystem.airCraft[11].router 	queuingTime:mean 	373.85243351187
attr title  "Queuing time of packets, mean"
scalar AerocomSystem.airCraft[12].fifo 	queueLength:max 	762
attr title  "Statistic about queue's length, max"
scalar AerocomSystem.airCraft[12].fifo 	queueLength:mean 	373.08555729984
attr title  "Statistic about queue's length, mean"
scalar AerocomSystem.airCraft[12].router 	numSwitch:sum 	86
attr title  "Number of switch operation, sum"
scalar AerocomSystem.airCraft[12].router 	queuingTime:mean 	358.56944445325
attr title  "Queuing time of packets, mean"
scalar AerocomSystem.airCraft[13].fifo 	queueLength:max 	761
attr title  "Statistic about queue's length, max"
scalar AerocomSystem.airCraft[13].fifo 	queueLength:mean 	374.36096049574
attr title  "Statistic about queue's length, mean"
scalar AerocomSystem.airCraft[13].router 	numSwitch:sum 	86
attr title  "Number of switch operation, sum"
scalar AerocomSystem.airCraft[13].router 	queuingTime:mean 	352.2870981208
attr title  "Queuing time of packets, mean"
scalar AerocomSystem.airCraft[14].fifo 	queueLength:max 	745
attr title  "Statistic about queue's length, max"
scalar AerocomSystem.airCraft[14].fifo 	queueLength:mean 	372.33588957055
attr title  "Statistic about queue's length, mean"
scalar AerocomSystem.airCraft[14].router 	numSwitch:sum 	87
attr title  "Number of switch operation, sum"
scalar AerocomSystem.airCraft[14].router 	queuingTime:mean 	356.53400128862
attr title  "Queuing time of packets, mean"
scalar AerocomSystem.airCraft[15].fifo 	queueLength:max 	698
attr title  "Statistic about queue's length, max"
scalar AerocomSystem.airCraft[15].fifo 	queueLength:mean 	339.78363047002
attr title  "Statistic about queue's length, mean"
scalar AerocomSystem.airCraft[15].router 	numSwitch:sum 	88
attr title  "Number of switch operation, sum"
scalar AerocomSystem.airCraft[15].router 	queuingTime:mean 	323.20067222064
attr title  "Queuing time of packets, mean"
scalar AerocomSystem.airCraft[16].fifo 	queueLength:max 	719
attr title  "Statistic about queue's length, max"
scalar AerocomSystem.airCraft[16].fifo 	queueLength:mean 	364.69146436962
attr title  "Statistic about queue's length, mean"
scalar AerocomSystem.airCraft[16].router 	numSwitch:sum 	88
attr title  "Number of switch operation, sum"
scalar AerocomSystem.airCraft[16].router 	queuingTime:mean 	364.81453936321
attr title  "Queuing time of packets, mean"
scalar AerocomSystem.airCraft[17].fifo 	queueLength:max 	743
attr title  "Statistic about queue's length, max"
scalar AerocomSystem.airCraft[17].fifo 	queueLength:mean 	365.2228303362
attr title  "Statistic about queue's length, mean"
scalar AerocomSystem.airCraft[17].router 	numSwitch:sum 	84
attr title  "Number of switch operation, sum"
scalar AerocomSystem.airCraft[17].router 	queuingTime:mean 	346.966992508
attr title  "Queuing time of packets, mean"
scalar AerocomSystem.airCraft[18].fifo 	queueLength:max 	765
attr title  "Statistic about queue's length, max"
scalar AerocomSystem.airCraft[18].fifo 	queueLength:mean 	392.75195618153
attr title  "Statistic about queue's length, mean"
scalar AerocomSystem.airCraft[18].router 	numSwitch:sum 	89
attr title  "Number of switch operation, sum"
scalar AerocomSystem.airCraft[18].router 	queuingTime:mean 	397.0741479919
attr title  "Queuing time of packets, mean"
scalar AerocomSystem.airCraft[19].fifo 	queueLength:max 	755
attr title  "Statistic about queue's length, max"
scalar AerocomSystem.airCraft[19].fifo 	queueLength:mean 	371.26505082095
attr title  "Statistic about queue's length, mean"
scalar AerocomSystem.airCraft[19].router 	numSwitch:sum 	89
attr title  "Number of switch operation, sum"
scalar AerocomSystem.airCraft[19].router 	queuingTime:mean 	355.23353891541
attr title  "Queuing time of packets, mean"
scalar AerocomSystem.airCraft[20].fifo 	queueLength:max 	791
attr title  "Statistic about queue's length, max"
scalar AerocomSystem.airCraft[20].fifo 	queueLength:mean 	384.41403238242
attr title  "Statistic about queue's length, mean"
scalar AerocomSystem.airCraft[20].router 	numSwitch:sum 	91
attr title  "Number of switch operation, sum"
scalar AerocomSystem.airCraft[20].router 	queuingTime:mean 	354.20715087017
attr title  "Queuing time of packets, mean"
scalar AerocomSystem.airCraft[21].fifo 	queueLength:max 	760
attr title  "Statistic about queue's length, max"
scalar AerocomSystem.airCraft[21].fifo 	queueLength:mean 	370.75199362041
attr title  "Statistic about queue's length, mean"
scalar AerocomSystem.airCraft[21].router 	numSwitch:sum 	86
attr title  "Number of switch operation, sum"
scalar AerocomSystem.airCraft[21].router 	queuingTime:mean 	347.52522574928
attr title  "Queuing time of packets, mean"
scalar AerocomSystem.airCraft[22].fifo 	queueLength:max 	728
attr title  "Statistic about queue's length, max"
scalar AerocomSystem.airCraft[22].fifo 	queueLength:mean 	355.74100719424
attr title  "Statistic about queue's length, mean"
scalar AerocomSystem.airCraft[22].router 	numSwitch:sum 	86
attr title  "Number of switch operation, sum"
scalar AerocomSystem.airCraft[22].router 	queuingTime:mean 	344.00779106184
attr title  "Queuing time of packets, mean"
scalar AerocomSystem.airCraft[23].fifo 	queueLength:max 	757
attr title  "Statistic about queue's length, max"
scalar AerocomSystem.airCraft[23].fifo 	queueLength:mean 	381.9104716227
attr title  "Statistic about queue's length, mean"
scalar AerocomSystem.airCraft[23].router 	numSwitch:sum 	90
attr title  "Number of switch operation, sum"
scalar AerocomSystem.airCraft[23].router 	queuingTime:mean 	372.93610304416
attr title  "Queuing time of packets, mean"
scalar AerocomSystem.airCraft[24].fifo 	queueLength:max 	704
attr title  "Statistic about queue's length, max"
scalar AerocomSystem.airCraft[24].fifo 	queueLength:mean 	355.10031347962
attr title  "Statistic about queue's length, mean"
scalar AerocomSystem.airCraft[24].router 	numSwitch:sum 	86
attr title  "Number of switch operation, sum"
scalar AerocomSystem.airCraft[24].router 	queuingTime:mean 	359.90357251184
attr title  "Queuing time of packets, mean"
scalar AerocomSystem.airCraft[25].fifo 	queueLength:max 	705
attr title  "Statistic about queue's length, max"
scalar AerocomSystem.airCraft[25].fifo 	queueLength:mean 	349.92164781906
attr title  "Statistic about queue's length, mean"
scalar AerocomSystem.airCraft[25].router 	numSwitch:sum 	90
attr title  "Number of switch operation, sum"
scalar AerocomSystem.airCraft[25].router 	queuingTime:mean 	354.67372940828
attr title  "Queuing time of packets, mean"
scalar AerocomSystem.airCraft[26].fifo 	queueLength:max 	744
attr title  "Statistic about queue's length, max"
scalar AerocomSystem.airCraft[26].fifo 	queueLength:mean 	370.68927444795
attr title  "Statistic about queue's length, mean"
scalar AerocomSystem.airCraft[26].router 	numSwitch:sum 	87
attr title  "Number of switch operation, sum"
scalar AerocomSystem.airCraft[26].router 	queuingTime:mean 	366.81076647629
attr title  "Queuing time of packets, mean"
scalar AerocomSystem.airCraft[27].fifo 	queueLength:max 	685
attr title  "Statistic about queue's length, max"
scalar AerocomSystem.airCraft[27].fifo 	queueLength:mean 	350.59893858984
attr title  "Statistic about queue's length, mean"
scalar AerocomSystem.airCraft[27].router 	numSwitch:sum 	85
attr title  "Number of switch operation, sum"
scalar AerocomSystem.airCraft[27].router 	queuingTime:mean 	358.82321204828
attr title  "Queuing time of packets, mean"
scalar AerocomSystem.airCraft[28].fifo 	queueLength:max 	697
attr title  "Statistic about queue's length, max"
scalar AerocomSystem.airCraft[28].fifo 	queueLength:mean 	352.6901865369
attr title  "Statistic about queue's length, mean"
scalar AerocomSystem.airCraft[28].router 	numSwitch:sum 	89
attr title  "Number of switch operation, sum"
scalar AerocomSystem.airCraft[28].router 	queuingTime:mean 	371.37160444916
attr title  "Queuing time of packets, mean"
scalar AerocomSystem.airCraft[29].fifo 	queueLength:max 	738
attr title  "Statistic about queue's length, max"
scalar AerocomSystem.airCraft[29].fifo 	queueLength:mean 	377.94854070661
attr title  "Statistic about queue's length, mean"
scalar AerocomSystem.airCraft[29].router 	numSwitch:sum 	85
attr title  "Number of switch operation, sum"
scalar AerocomSystem.airCraft[29].router 	queuingTime:mean 	373.76617602664
attr title  "Queuing time of packets, mean"
scalar AerocomSystem.airCraft[30].fifo 	queueLength:max 	788
attr title  "Statistic about queue's length, max"
scalar AerocomSystem.airCraft[30].fifo 	queueLength:mean 	385.15094339623
attr title  "Statistic about queue's length, mean"
scalar AerocomSystem.airCraft[30].router 	numSwitch:sum 	89
attr title  "Number of switch operation, sum"
scalar AerocomSystem.airCraft[30].router 	queuingTime:mean 	356.42422369117
attr title  "Queuing time of packets, mean"
scalar AerocomSystem.airCraft[31].fifo 	queueLength:max 	790
attr title  "Statistic about queue's length, max"
scalar AerocomSystem.airCraft[31].fifo 	queueLength:mean 	390.20319634703
attr title  "Statistic about queue's length, mean"
scalar AerocomSystem.airCraft[31].router 	numSwitch:sum 	88
attr title  "Number of switch operation, sum"
scalar AerocomSystem.airCraft[31].router 	queuingTime:mean 	367.12059552001
attr title  "Queuing time of packets, mean"
scalar AerocomSystem.airCraft[32].fifo 	queueLength:max 	740
attr title  "Statistic about queue's length, max"
scalar AerocomSystem.airCraft[32].fifo 	queueLength:mean 	368.34294871795
attr title  "Statistic about queue's length, mean"
scalar AerocomSystem.airCraft[32].router 	numSwitch:sum 	89
attr title  "Number of switch operation, sum"
scalar AerocomSystem.airCraft[32].router 	queuingTime:mean 	363.37399650785
attr title  "Queuing time of packets, mean"
scalar AerocomSystem.airCraft[33].fifo 	queueLength:max 	703
attr title  "Statistic about queue's length, max"
scalar AerocomSystem.airCraft[33].fifo 	queueLength:mean 	358.90683229814
attr title  "Statistic about queue's length, mean"
scalar AerocomSystem.airCraft[33].router 	numSwitch:sum 	86
attr title  "Number of switch operation, sum"
scalar AerocomSystem.airCraft[33].router 	queuingTime:mean 	367.54725406541
attr title  "Queuing time of packets, mean"
scalar AerocomSystem.airCraft[34].fifo 	queueLength:max 	719
attr title  "Statistic about queue's length, max"
scalar AerocomSystem.airCraft[34].fifo 	queueLength:mean 	355.47385358005
attr title  "Statistic about queue's length, mean"
scalar AerocomSystem.airCraft[34].router 	numSwitch:sum 	87
attr title  "Number of switch operation, sum"
scalar AerocomSystem.airCraft[34].router 	queuingTime:mean 	357.83000158622
attr title  "Queuing time of packets, mean"
scalar AerocomSystem.airCraft[35].fifo 	queueLength:max 	712
attr title  "Statistic about queue's length, max"
scalar AerocomSystem.airCraft[35].fifo 	queueLength:mean 	358.51353568499
attr title  "Statistic about queue's length, mean"
scalar AerocomSystem.airCraft[35].router 	numSwitch:sum 	88
attr title  "Number of switch operation, sum"
scalar AerocomSystem.airCraft[35].router 	queuingTime:mean 	374.05422731131
attr title  "Queuing time of packets, mean"
scalar AerocomSystem.airCraft[36].fifo 	queueLength:max 	692
attr title  "Statistic about queue's length, max"
scalar AerocomSystem.airCraft[36].fifo 	queueLength:mean 	340.64453441296
attr title  "Statistic about queue's length, mean"
scalar AerocomSystem.airCraft[36].router 	numSwitch:sum 	88
attr title  "Number of switch operation, sum"
scalar AerocomSystem.airCraft[36].router 	queuingTime:mean 	352.26064402099
attr title  "Queuing time of packets, mean"
scalar AerocomSystem.airCraft[37].fifo 	queueLength:max 	712
attr title  "Statistic about queue's length, max"
scalar AerocomSystem.airCraft[37].fifo 	queueLength:mean 	363.16981132075
attr title  "Statistic about queue's length, mean"
scalar AerocomSystem.airCraft[37].router 	numSwitch:sum 	85
attr title  "Number of switch operation, sum"
scalar AerocomSystem.airCraft[37].router 	queuingTime:mean 	367.59340285941
attr title  "Queuing time of packets, mean"
scalar AerocomSystem.airCraft[38].fifo 	queueLength:max 	712
attr title  "Statistic about queue's length, max"
scalar AerocomSystem.airCraft[38].fifo 	queueLength:mean 	367.95337620579
attr title  "Statistic about queue's length, mean"
scalar AerocomSystem.airCraft[38].router 	numSwitch:sum 	85
attr title  "Number of switch operation, sum"
scalar AerocomSystem.airCraft[38].router 	queuingTime:mean 	378.30754626436
attr title  "Queuing time of packets, mean"
scalar AerocomSystem.airCraft[39].fifo 	queueLength:max 	803
attr title  "Statistic about queue's length, max"
scalar AerocomSystem.airCraft[39].fifo 	queueLength:mean 	397.40440060698
attr title  "Statistic about queue's length, mean"
scalar AerocomSystem.airCraft[39].router 	numSwitch:sum 	85
attr title  "Number of switch operation, sum"
scalar AerocomSystem.airCraft[39].router 	queuingTime:mean 	381.40670988995
attr title  "Queuing time of packets, mean"
scalar AerocomSystem.airCraft[40].fifo 	queueLength:max 	695
attr title  "Statistic about queue's length, max"
scalar AerocomSystem.airCraft[40].fifo 	queueLength:mean 	344.32712550607
attr title  "Statistic about queue's length, mean"
scalar AerocomSystem.airCraft[40].router 	numSwitch:sum 	86
attr title  "Number of switch operation, sum"
scalar AerocomSystem.airCraft[40].router 	queuingTime:mean 	344.14650453392
attr title  "Queuing time of packets, mean"
scalar AerocomSystem.airCraft[41].fifo 	queueLength:max 	759
attr title  "Statistic about queue's length, max"
scalar AerocomSystem.airCraft[41].fifo 	queueLength:mean 	379.4428678118
attr title  "Statistic about queue's length, mean"
scalar AerocomSystem.airCraft[41].router 	numSwitch:sum 	84
attr title  "Number of switch operation, sum"
scalar AerocomSystem.airCraft[41].router 	queuingTime:mean 	372.0682348179
attr title  "Queuing time of packets, mean"
scalar AerocomSystem.airCraft[42].fifo 	queueLength:max 	682
attr title  "Statistic about queue's length, max"
scalar AerocomSystem.airCraft[42].fifo 	queueLength:mean 	322.68310428456
attr title  "Statistic about queue's length, mean"
scalar AerocomSystem.airCraft[42].router 	numSwitch:sum 	87
attr title  "Number of switch operation, sum"
scalar AerocomSystem.airCraft[42].router 	queuingTime:mean 	296.18750903137
attr title  "Queuing time of packets, mean"
scalar AerocomSystem.airCraft[43].fifo 	queueLength:max 	731
attr title  "Statistic about queue's length, max"
scalar AerocomSystem.airCraft[43].fifo 	queueLength:mean 	373.51694247439
attr title  "Statistic about queue's length, mean"
scalar AerocomSystem.airCraft[43].router 	numSwitch:sum 	88
attr title  "Number of switch operation, sum"
scalar AerocomSystem.airCraft[43].router 	queuingTime:mean 	374.57962466785
attr title  "Queuing time of packets, mean"
scalar AerocomSystem.airCraft[44].fifo 	queueLength:max 	711
attr title  "Statistic about queue's length, max"
scalar AerocomSystem.airCraft[44].fifo 	queueLength:mean 	367.7593625498
attr title  "Statistic about queue's length, mean"
scalar AerocomSystem.airCraft[44].router 	numSwitch:sum 	90
attr title  "Number of switch operation, sum"
scalar AerocomSystem.airCraft[44].router 	queuingTime:mean 	381.91651030144
attr title  "Queuing time of packets, mean"
scalar AerocomSystem.airCraft[45].fifo 	queueLength:max 	734
attr title  "Statistic about queue's length, max"
scalar AerocomSystem.airCraft[45].fifo 	queueLength:mean 	365.84009360374
attr title  "Statistic about queue's length, mean"
scalar AerocomSystem.airCraft[45].router 	numSwitch:sum 	88
attr title  "Number of switch operation, sum"
scalar AerocomSystem.airCraft[45].router 	queuingTime:mean 	352.66750211618
attr title  "Queuing time of packets, mean"
scalar AerocomSystem.airCraft[46].fifo 	queueLength:max 	780
attr title  "Statistic about queue's length, max"
scalar AerocomSystem.airCraft[46].fifo 	queueLength:mean 	391.79113924051
attr title  "Statistic about queue's length, mean"
scalar AerocomSystem.airCraft[46].router 	numSwitch:sum 	90
attr title  "Number of switch operation, sum"
scalar AerocomSystem.airCraft[46].router 	queuingTime:mean 	378.72005602969
attr title  "Queuing time of packets, mean"
scalar AerocomSystem.airCraft[47].fifo 	queueLength:max 	732
attr title  "Statistic about queue's length, max"
scalar AerocomSystem.airCraft[47].fifo 	queueLength:mean 	361.72843450479
attr title  "Statistic about queue's length, mean"
scalar AerocomSystem.airCraft[47].router 	numSwitch:sum 	85
attr title  "Number of switch operation, sum"
scalar AerocomSystem.airCraft[47].router 	queuingTime:mean 	355.35768551471
attr title  "Queuing time of packets, mean"
scalar AerocomSystem.airCraft[48].fifo 	queueLength:max 	761
attr title  "Statistic about queue's length, max"
scalar AerocomSystem.airCraft[48].fifo 	queueLength:mean 	383.32603406326
attr title  "Statistic about queue's length, mean"
scalar AerocomSystem.airCraft[48].router 	numSwitch:sum 	88
attr title  "Number of switch operation, sum"
scalar AerocomSystem.airCraft[48].router 	queuingTime:mean 	390.01742576192
attr title  "Queuing time of packets, mean"
scalar AerocomSystem.airCraft[49].fifo 	queueLength:max 	725
attr title  "Statistic about queue's length, max"
scalar AerocomSystem.airCraft[49].fifo 	queueLength:mean 	368.58577075099
attr title  "Statistic about queue's length, mean"
scalar AerocomSystem.airCraft[49].router 	numSwitch:sum 	89
attr title  "Number of switch operation, sum"
scalar AerocomSystem.airCraft[49].router 	queuingTime:mean 	383.14777755829
attr title  "Queuing time of packets, mean"
scalar AerocomSystem.controlTower 	responseTime:mean 	366.51383645243
attr title  "Response time of arrived packets, mean"
attr unit  s
